results/ricin///ligands/1IFS.A.ADE_300_A.lig
 OpenBabel09152019383D

 10 11  0  0  1  0  0  0  0  0999 V2000
   56.9790  -23.6100   97.4260 N   0  0  0  0  0  0  0  0  0  0  0  0
   56.6070  -24.2280   98.5890 C   0  0  0  0  0  0  0  0  0  0  0  0
   57.5850  -24.4350   99.4110 N   0  0  0  0  0  0  0  0  0  0  0  0
   58.6750  -23.9440   98.7650 C   0  0  2  0  0  0  0  0  0  0  0  0
   59.9980  -23.8890   99.1270 C   0  0  0  0  0  0  0  0  0  0  0  0
   60.4270  -24.3750  100.2940 N   0  0  0  0  0  0  0  0  0  0  0  0
   60.8090  -23.3230   98.2310 N   0  0  0  0  0  0  0  0  0  0  0  0
   60.3130  -22.8620   97.1000 C   0  0  0  0  0  0  0  0  0  0  0  0
   59.1050  -22.8530   96.6330 N   0  0  0  0  0  0  0  0  0  0  0  0
   58.3260  -23.4280   97.5470 C   0  0  0  0  0  0  0  0  0  0  0  0
  1 10  2  0  0  0  0
  1  2  1  0  0  0  0
  2  3  2  0  0  0  0
  4 10  1  1  0  0  0
  4  5  1  0  0  0  0
  4  3  1  0  0  0  0
  5  6  1  0  0  0  0
  7  5  2  0  0  0  0
  8  7  1  0  0  0  0
  9  8  2  0  0  0  0
  9 10  1  0  0  0  0
M  END
