results/ricin///ligands/1OBT.A.AMP_701_A.lig
 OpenBabel09152019383D

 23 25  0  0  1  0  0  0  0  0999 V2000
   54.8340  -30.0600   95.8560 P   0  0  0  0  0  0  0  0  0  0  0  0
   54.4240  -30.8970   97.0420 O   0  0  0  0  0  0  0  0  0  0  0  0
   54.0720  -30.0350   94.5580 O   0  0  0  0  0  0  0  0  0  0  0  0
   56.3810  -30.4550   95.4750 O   0  0  0  0  0  0  0  0  0  0  0  0
   54.7430  -28.5410   96.3810 O   0  0  0  0  0  0  0  0  0  0  0  0
   53.4210  -28.0230   96.6440 C   0  0  0  0  0  0  0  0  0  0  0  0
   53.4210  -26.5030   96.5090 C   0  0  1  0  0  0  0  0  0  0  0  0
   54.5280  -25.9790   97.2940 O   0  0  0  0  0  0  0  0  0  0  0  0
   53.6640  -26.0650   95.0450 C   0  0  1  0  0  0  0  0  0  0  0  0
   53.0550  -24.7690   94.8080 O   0  0  0  0  0  0  0  0  0  0  0  0
   55.2000  -25.9810   95.0100 C   0  0  1  0  0  0  0  0  0  0  0  0
   55.5460  -25.0240   94.0220 O   0  0  0  0  0  0  0  0  0  0  0  0
   55.5720  -25.4620   96.4090 C   0  0  2  0  0  0  0  0  0  0  0  0
   56.8760  -25.9810   96.8600 N   0  0  0  0  0  0  0  0  0  0  0  0
   57.4540  -27.1970   96.5880 C   0  0  0  0  0  0  0  0  0  0  0  0
   58.6200  -27.3770   97.1580 N   0  0  0  0  0  0  0  0  0  0  0  0
   58.8430  -26.1880   97.8630 C   0  0  0  0  0  0  0  0  0  0  0  0
   59.9160  -25.7490   98.6970 C   0  0  0  0  0  0  0  0  0  0  0  0
   61.0220  -26.4790   98.9590 N   0  0  0  0  0  0  0  0  0  0  0  0
   59.8100  -24.5200   99.2410 N   0  0  0  0  0  0  0  0  0  0  0  0
   58.7000  -23.8220   98.9680 C   0  0  0  0  0  0  0  0  0  0  0  0
   57.6280  -24.1010   98.2070 N   0  0  0  0  0  0  0  0  0  0  0  0
   57.7760  -25.3370   97.6800 C   0  0  0  0  0  0  0  0  0  0  0  0
  1  5  1  0  0  0  0
  1  2  1  0  0  0  0
  3  1  2  0  0  0  0
  4  1  1  0  0  0  0
  5  6  1  0  0  0  0
  7  6  1  6  0  0  0
  7  8  1  0  0  0  0
  9 10  1  1  0  0  0
  9  7  1  0  0  0  0
 11 12  1  6  0  0  0
 11  9  1  0  0  0  0
 11 13  1  0  0  0  0
 13 14  1  1  0  0  0
 13  8  1  0  0  0  0
 14 23  1  0  0  0  0
 15 14  1  0  0  0  0
 15 16  2  0  0  0  0
 16 17  1  0  0  0  0
 17 18  1  0  0  0  0
 18 19  1  0  0  0  0
 18 20  2  0  0  0  0
 21 20  1  0  0  0  0
 22 21  2  0  0  0  0
 23 17  2  0  0  0  0
 23 22  1  0  0  0  0
M  END
