results/ricin///ligands/1RZO.B.GAL_5006_B.lig
 OpenBabel09152019383D

 12 12  0  0  1  0  0  0  0  0999 V2000
   27.4480   59.2910   38.1800 C   0  0  2  0  0  0  0  0  0  0  0  0
   28.1460   59.4380   39.5710 C   0  0  1  0  0  0  0  0  0  0  0  0
   27.4150   60.3860   40.2810 C   0  0  2  0  0  0  0  0  0  0  0  0
   27.3110   61.8440   39.6010 C   0  0  2  0  0  0  0  0  0  0  0  0
   26.7800   61.6450   38.1570 C   0  0  1  0  0  0  0  0  0  0  0  0
   26.9150   62.8850   37.2870 C   0  0  0  0  0  0  0  0  0  0  0  0
   28.1430   58.3580   37.4230 O   0  0  0  0  0  0  0  0  0  0  0  0
   28.1150   58.2010   40.3130 O   0  0  0  0  0  0  0  0  0  0  0  0
   27.9110   60.6920   41.6640 O   0  0  0  0  0  0  0  0  0  0  0  0
   28.6280   62.4440   39.5990 O   0  0  0  0  0  0  0  0  0  0  0  0
   27.5040   60.5730   37.4510 O   0  0  0  0  0  0  0  0  0  0  0  0
   26.4090   62.6480   35.9720 O   0  0  0  0  0  0  0  0  0  0  0  0
  1  7  1  6  0  0  0
  1  2  1  0  0  0  0
  2  3  1  0  0  0  0
  2  8  1  1  0  0  0
  3  9  1  1  0  0  0
  4 10  1  6  0  0  0
  4  3  1  0  0  0  0
  5  6  1  6  0  0  0
  5  4  1  0  0  0  0
 11  5  1  0  0  0  0
 11  1  1  0  0  0  0
 12  6  1  0  0  0  0
M  END
