results/ricin///ligands/1RZO.D.GAL_5505_D.lig
 OpenBabel09152019383D

 12 12  0  0  1  0  0  0  0  0999 V2000
   86.0150   23.5170  -25.8770 C   0  0  2  0  0  0  0  0  0  0  0  0
   86.3440   24.8900  -25.2280 C   0  0  1  0  0  0  0  0  0  0  0  0
   86.9080   24.6380  -23.9830 C   0  0  2  0  0  0  0  0  0  0  0  0
   85.9550   23.8270  -22.9690 C   0  0  2  0  0  0  0  0  0  0  0  0
   85.5410   22.5150  -23.6870 C   0  0  1  0  0  0  0  0  0  0  0  0
   84.4240   21.7580  -22.9600 C   0  0  0  0  0  0  0  0  0  0  0  0
   85.4280   23.7270  -27.1270 O   0  0  0  0  0  0  0  0  0  0  0  0
   87.3070   25.6070  -26.0190 O   0  0  0  0  0  0  0  0  0  0  0  0
   87.2830   25.8610  -23.2060 O   0  0  0  0  0  0  0  0  0  0  0  0
   84.7930   24.6570  -22.7110 O   0  0  0  0  0  0  0  0  0  0  0  0
   85.0290   22.8010  -25.0460 O   0  0  0  0  0  0  0  0  0  0  0  0
   84.0660   20.5520  -23.6560 O   0  0  0  0  0  0  0  0  0  0  0  0
  1  7  1  6  0  0  0
  1  2  1  0  0  0  0
  1 11  1  0  0  0  0
  2  8  1  6  0  0  0
  2  3  1  0  0  0  0
  3  9  1  1  0  0  0
  3  4  1  0  0  0  0
  4 10  1  6  0  0  0
  5  4  1  0  0  0  0
  5  6  1  1  0  0  0
 11  5  1  0  0  0  0
 12  6  1  0  0  0  0
M  END
