results/ricin///ligands/2P8N.A.ADE_271_A.lig
 OpenBabel09152019383D

 10 11  0  0  1  0  0  0  0  0999 V2000
  -23.2210   11.9740   -8.6430 N   0  0  0  0  0  0  0  0  0  0  0  0
  -23.9430   12.3660   -7.5400 C   0  0  0  0  0  0  0  0  0  0  0  0
  -24.2420   11.3970   -6.7270 N   0  0  0  0  0  0  0  0  0  0  0  0
  -23.6880   10.2970   -7.3000 C   0  0  1  0  0  0  0  0  0  0  0  0
  -23.6690    8.9490   -6.9250 C   0  0  0  0  0  0  0  0  0  0  0  0
  -24.2520    8.5300   -5.7940 N   0  0  0  0  0  0  0  0  0  0  0  0
  -23.0060    8.1060   -7.7700 N   0  0  0  0  0  0  0  0  0  0  0  0
  -22.4380    8.5840   -8.8910 C   0  0  0  0  0  0  0  0  0  0  0  0
  -22.3920    9.8150   -9.3550 N   0  0  0  0  0  0  0  0  0  0  0  0
  -23.0610   10.6250   -8.4930 C   0  0  0  0  0  0  0  0  0  0  0  0
  1 10  2  0  0  0  0
  1  2  1  0  0  0  0
  2  3  2  0  0  0  0
  4 10  1  6  0  0  0
  4  5  1  0  0  0  0
  4  3  1  0  0  0  0
  5  6  1  0  0  0  0
  7  5  2  0  0  0  0
  8  7  1  0  0  0  0
  9  8  2  0  0  0  0
  9 10  1  0  0  0  0
M  END
