results/ricin///ligands/3RTI.B.BGC_268_B.lig
 OpenBabel09152019383D

 12 12  0  0  1  0  0  0  0  0999 V2000
   -3.2540   30.8070   55.9670 C   0  0  2  0  0  0  0  0  0  0  0  0
   -2.7010   31.6960   54.8450 C   0  0  2  0  0  0  0  0  0  0  0  0
   -2.6870   33.1780   55.2520 C   0  0  1  0  0  0  0  0  0  0  0  0
   -2.4660   33.3270   56.7630 C   0  0  1  0  0  0  0  0  0  0  0  0
   -2.4600   34.7870   57.1830 C   0  0  0  0  0  0  0  0  0  0  0  0
   -4.1990   31.6100   56.8590 C   0  0  2  0  0  0  0  0  0  0  0  0
   -5.1960   32.1880   56.0920 O   0  0  0  0  0  0  0  0  0  0  0  0
   -2.1830   30.2870   56.7410 O   0  0  0  0  0  0  0  0  0  0  0  0
   -3.4900   31.5390   53.6730 O   0  0  0  0  0  0  0  0  0  0  0  0
   -1.6110   33.8540   54.5670 O   0  0  0  0  0  0  0  0  0  0  0  0
   -3.5030   32.6660   57.5430 O   0  0  0  0  0  0  0  0  0  0  0  0
   -3.0710   35.6090   56.1940 O   0  0  0  0  0  0  0  0  0  0  0  0
  1  8  1  1  0  0  0
  1  6  1  0  0  0  0
  2  9  1  6  0  0  0
  2  3  1  0  0  0  0
  2  1  1  0  0  0  0
  3 10  1  6  0  0  0
  3  4  1  0  0  0  0
  4  5  1  6  0  0  0
  4 11  1  0  0  0  0
  6  7  1  6  0  0  0
  6 11  1  0  0  0  0
 12  5  1  0  0  0  0
M  END
