results/ricin///ligands/3RTI.B.GAL_264_B.lig
 OpenBabel09152019383D

 11 11  0  0  1  0  0  0  0  0999 V2000
   31.7210   41.4100   12.7010 C   0  0  0  0  0  0  0  0  0  0  0  0
   31.3270   42.5610   13.6430 C   0  0  1  0  0  0  0  0  0  0  0  0
   30.6910   42.0030   14.9120 C   0  0  2  0  0  0  0  0  0  0  0  0
   29.5160   41.0890   14.5550 C   0  0  2  0  0  0  0  0  0  0  0  0
   29.9940   39.9930   13.5940 C   0  0  1  0  0  0  0  0  0  0  0  0
   28.8770   39.0710   13.1320 C   0  0  0  0  0  0  0  0  0  0  0  0
   32.4740   43.3260   13.9870 O   0  0  0  0  0  0  0  0  0  0  0  0
   30.2460   43.0730   15.7240 O   0  0  0  0  0  0  0  0  0  0  0  0
   28.4850   41.8480   13.9440 O   0  0  0  0  0  0  0  0  0  0  0  0
   30.5750   40.5870   12.4110 O   0  0  0  0  0  0  0  0  0  0  0  0
   28.0990   39.6720   12.1090 O   0  0  0  0  0  0  0  0  0  0  0  0
  1  2  1  0  0  0  0
  2  7  1  1  0  0  0
  2  3  1  0  0  0  0
  3  8  1  1  0  0  0
  4  9  1  6  0  0  0
  4  3  1  0  0  0  0
  5  6  1  6  0  0  0
  5  4  1  0  0  0  0
 10  1  1  0  0  0  0
 10  5  1  0  0  0  0
 11  6  1  0  0  0  0
M  END
