results/ricin///ligands/3RTI.B.BGC_265_B.lig
 OpenBabel09152019383D

 12 12  0  0  1  0  0  0  0  0999 V2000
   33.7900   39.9870    8.6870 C   0  0  2  0  0  0  0  0  0  0  0  0
   32.6860   40.4660    9.6310 C   0  0  2  0  0  0  0  0  0  0  0  0
   33.2540   41.2110   10.8500 C   0  0  1  0  0  0  0  0  0  0  0  0
   34.3520   42.2190   10.4620 C   0  0  1  0  0  0  0  0  0  0  0  0
   35.1270   42.7050   11.6690 C   0  0  0  0  0  0  0  0  0  0  0  0
   34.7100   41.1580    8.3650 C   0  0  2  0  0  0  0  0  0  0  0  0
   35.7180   40.7540    7.5060 O   0  0  0  0  0  0  0  0  0  0  0  0
   33.2170   39.4850    7.4880 O   0  0  0  0  0  0  0  0  0  0  0  0
   31.9320   39.3480   10.0740 O   0  0  0  0  0  0  0  0  0  0  0  0
   32.1870   41.9300   11.5010 O   0  0  0  0  0  0  0  0  0  0  0  0
   35.3130   41.6180    9.5720 O   0  0  0  0  0  0  0  0  0  0  0  0
   35.8550   41.6410   12.2610 O   0  0  0  0  0  0  0  0  0  0  0  0
  1  8  1  6  0  0  0
  1  2  1  0  0  0  0
  2  9  1  1  0  0  0
  2  3  1  0  0  0  0
  3 10  1  6  0  0  0
  4  3  1  0  0  0  0
  4  5  1  1  0  0  0
  5 12  1  0  0  0  0
  6  7  1  6  0  0  0
  6  1  1  0  0  0  0
  6 11  1  0  0  0  0
 11  4  1  0  0  0  0
M  END
