results/cdk2///ligands/3QQF.A.X07_543_A.lig
 OpenBabel09152019553D

 20 21  0  0  0  0  0  0  0  0999 V2000
   65.4340   44.8760  -46.7160 C   0  0  0  0  0  0  0  0  0  0  0  0
   66.7250   44.4210  -46.3750 C   0  0  0  0  0  0  0  0  0  0  0  0
   67.8350   44.5940  -47.2670 C   0  0  0  0  0  0  0  0  0  0  0  0
   67.5910   45.2440  -48.5130 C   0  0  0  0  0  0  0  0  0  0  0  0
   66.2880   45.7230  -48.9070 C   0  0  0  0  0  0  0  0  0  0  0  0
   65.1610   45.5400  -47.9850 C   0  0  0  0  0  0  0  0  0  0  0  0
   63.9290   45.9480  -48.3270 N   0  0  0  0  0  0  0  0  0  0  0  0
   66.1560   46.2640  -50.1740 C   0  0  0  0  0  0  0  0  0  0  0  0
   66.9350   45.8710  -51.2230 N   0  0  0  0  0  0  0  0  0  0  0  0
   65.2340   47.2030  -50.4170 O   0  0  0  0  0  0  0  0  0  0  0  0
   69.0590   44.1660  -46.9520 N   0  0  0  0  0  0  0  0  0  0  0  0
   70.1020   44.3320  -47.7940 O   0  0  0  0  0  0  0  0  0  0  0  0
   69.2810   43.6070  -45.8860 O   0  0  0  0  0  0  0  0  0  0  0  0
   62.6910   45.8150  -47.5360 C   0  0  0  0  0  0  0  0  0  0  0  0
   62.3240   48.7910  -44.3920 C   0  0  0  0  0  0  0  0  0  0  0  0
   62.5010   49.1660  -45.7110 N   0  0  0  0  0  0  0  0  0  0  0  0
   62.6220   48.2440  -46.7390 C   0  0  0  0  0  0  0  0  0  0  0  0
   62.5630   46.8500  -46.4440 C   0  0  0  0  0  0  0  0  0  0  0  0
   62.3800   46.4500  -45.0850 C   0  0  0  0  0  0  0  0  0  0  0  0
   62.2600   47.4160  -44.0540 C   0  0  0  0  0  0  0  0  0  0  0  0
  1  2  1  0  0  0  0
  3 11  1  0  0  0  0
  3  2  2  0  0  0  0
  4  3  1  0  0  0  0
  5  4  2  0  0  0  0
  5  6  1  0  0  0  0
  6  1  2  0  0  0  0
  7  6  1  0  0  0  0
  7 14  1  0  0  0  0
  8  5  1  0  0  0  0
  9  8  1  0  0  0  0
 10  8  2  0  0  0  0
 11 13  2  0  0  0  0
 12 11  2  0  0  0  0
 14 18  1  0  0  0  0
 15 20  1  0  0  0  0
 16 15  2  0  0  0  0
 17 18  2  0  0  0  0
 17 16  1  0  0  0  0
 18 19  1  0  0  0  0
 19 20  2  0  0  0  0
M  END
