results/cdk2///ligands/3QQH.A.X0A_303_A.lig
 OpenBabel09152019553D

 22 24  0  0  0  0  0  0  0  0999 V2000
   62.8120   80.6110  -48.3790 N   0  0  0  0  0  4  0  0  0  0  0  0
   62.0590   80.4130  -46.1120 N   0  0  0  0  0  0  0  0  0  0  0  0
   64.1050   79.3470  -46.8010 N   0  0  0  0  0  0  0  0  0  0  0  0
   60.9420   81.5570  -47.6620 N   0  0  0  0  0  0  0  0  0  0  0  0
   63.2760   79.2370  -44.6480 N   0  0  0  0  0  0  0  0  0  0  0  0
   66.8260   78.3360  -49.7630 C   0  0  0  0  0  0  0  0  0  0  0  0
   66.7030   78.8800  -51.0670 C   0  0  0  0  0  0  0  0  0  0  0  0
   65.6320   79.7640  -51.3720 C   0  0  0  0  0  0  0  0  0  0  0  0
   64.6760   80.1090  -50.3720 C   0  0  0  0  0  0  0  0  0  0  0  0
   64.7950   79.5550  -49.0350 C   0  0  0  0  0  0  0  0  0  0  0  0
   65.8830   78.6670  -48.7540 C   0  0  0  0  0  0  0  0  0  0  0  0
   63.8790   79.8520  -48.0400 C   0  0  0  0  0  0  0  0  0  0  0  0
   61.9510   80.8520  -47.3780 C   0  0  0  0  0  0  0  0  0  0  0  0
   63.1560   79.6640  -45.8760 C   0  0  0  0  0  0  0  0  0  0  0  0
   64.1630   78.4130  -44.1700 C   0  0  0  0  0  0  0  0  0  0  0  0
   65.5630   78.5220  -44.4710 C   0  0  0  0  0  0  0  0  0  0  0  0
   66.4920   77.6010  -43.9120 C   0  0  0  0  0  0  0  0  0  0  0  0
   66.0360   76.5720  -43.0480 C   0  0  0  0  0  0  0  0  0  0  0  0
   64.6530   76.4610  -42.7440 C   0  0  0  0  0  0  0  0  0  0  0  0
   63.7230   77.3760  -43.3030 C   0  0  0  0  0  0  0  0  0  0  0  0
   63.6600   80.9540  -50.6960 O   0  0  0  0  0  0  0  0  0  0  0  0
   68.1240   77.2670  -49.4040 Cl  0  0  0  0  0  0  0  0  0  0  0  0
  1 12  2  0  0  0  0
  1 13  2  0  0  0  0
  2 14  2  0  0  0  0
  3 14  2  0  0  0  0
  4 13  1  0  0  0  0
  5 15  1  0  0  0  0
  6 22  1  0  0  0  0
  6 11  1  0  0  0  0
  7  6  2  0  0  0  0
  8  7  1  0  0  0  0
  8  9  2  0  0  0  0
  9 10  1  0  0  0  0
 10 11  2  0  0  0  0
 10 12  1  0  0  0  0
 12  3  1  0  0  0  0
 13  2  1  0  0  0  0
 14  5  1  0  0  0  0
 15 20  1  0  0  0  0
 16 15  2  0  0  0  0
 16 17  1  0  0  0  0
 17 18  2  0  0  0  0
 18 19  1  0  0  0  0
 20 19  2  0  0  0  0
 21  9  1  0  0  0  0
M  END
