results/cdk2///ligands/3QQJ.A.X11_300_A.lig
 OpenBabel09152019553D

 15 16  0  0  0  0  0  0  0  0999 V2000
  -12.0000  -80.2160  -11.1620 N   0  0  0  0  0  4  0  0  0  0  0  0
  -11.1560  -80.5350  -10.1500 C   0  0  0  0  0  0  0  0  0  0  0  0
  -10.1210  -81.3800  -10.3700 N   0  0  0  0  0  0  0  0  0  0  0  0
   -9.9330  -81.9050  -11.6010 C   0  0  0  0  0  0  0  0  0  0  0  0
  -10.7730  -81.5850  -12.6040 N   0  0  0  0  0  0  0  0  0  0  0  0
  -11.8060  -80.7440  -12.3920 C   0  0  0  0  0  0  0  0  0  0  0  0
  -11.3580  -79.9840   -8.8720 N   0  0  0  0  0  0  0  0  0  0  0  0
   -8.8710  -82.7750  -11.8460 N   0  0  0  0  0  0  0  0  0  0  0  0
  -12.7230  -80.3990  -13.5130 C   0  0  0  0  0  0  0  0  0  0  0  0
  -12.5100  -80.9550  -14.8190 C   0  0  0  0  0  0  0  0  0  0  0  0
  -13.3820  -80.6100  -15.8820 C   0  0  0  0  0  0  0  0  0  0  0  0
  -14.4700  -79.7170  -15.6550 C   0  0  0  0  0  0  0  0  0  0  0  0
  -14.6910  -79.1650  -14.3530 C   0  0  0  0  0  0  0  0  0  0  0  0
  -13.8160  -79.5060  -13.2890 C   0  0  0  0  0  0  0  0  0  0  0  0
  -11.4680  -81.8190  -15.0480 O   0  0  0  0  0  0  0  0  0  0  0  0
  1  2  2  0  0  0  0
  2  7  1  0  0  0  0
  3  2  1  0  0  0  0
  4  3  2  0  0  0  0
  5  6  1  0  0  0  0
  5  4  1  0  0  0  0
  6  1  2  0  0  0  0
  8  4  1  0  0  0  0
  9 14  1  0  0  0  0
  9  6  1  0  0  0  0
 10  9  2  0  0  0  0
 11 12  2  0  0  0  0
 11 10  1  0  0  0  0
 12 13  1  0  0  0  0
 13 14  2  0  0  0  0
 15 10  1  0  0  0  0
M  END
