results/cdk2///ligands/3QQL.A.X03_299_A.lig
 OpenBabel09152019543D

 18 19  0  0  1  0  0  0  0  0999 V2000
   51.2360  -66.3880 -102.0390 N   0  0  0  0  0  0  0  0  0  0  0  0
   52.3000  -67.1620 -101.4930 N   0  0  0  0  0  0  0  0  0  0  0  0
   53.0590  -66.3380 -100.6950 C   0  0  0  0  0  0  0  0  0  0  0  0
   52.5100  -65.0730 -100.7070 C   0  0  0  0  0  0  0  0  0  0  0  0
   51.3220  -65.1270 -101.5860 C   0  0  0  0  0  0  0  0  0  0  0  0
   50.4050  -64.0100 -101.9080 C   0  0  0  0  0  0  0  0  0  0  0  0
   49.3720  -64.2140 -102.7510 N   0  0  0  0  0  0  0  0  0  0  0  0
   48.4630  -63.1580 -103.0930 N   0  0  0  0  0  0  0  0  0  0  0  0
   50.5850  -62.8870 -101.4060 O   0  0  0  0  0  0  0  0  0  0  0  0
   54.3370  -66.6920  -99.8840 C   0  0  0  0  0  0  0  0  0  0  0  0
   54.9920  -65.4640  -99.0900 C   0  0  0  0  0  0  0  0  0  0  0  0
   53.9520  -64.3170  -98.6140 C   0  0  2  0  0  0  0  0  0  0  0  0
   53.1150  -63.8930  -99.9150 C   0  0  0  0  0  0  0  0  0  0  0  0
   54.5860  -63.0010  -97.8260 C   0  0  0  0  0  0  0  0  0  0  0  0
   54.0240  -62.9410  -96.3090 C   0  0  0  0  0  0  0  0  0  0  0  0
   54.4120  -64.2200  -95.6690 C   0  0  0  0  0  0  0  0  0  0  0  0
   54.2230  -61.6700  -98.5910 C   0  0  0  0  0  0  0  0  0  0  0  0
   56.1450  -63.0560  -97.7410 C   0  0  0  0  0  0  0  0  0  0  0  0
  1  5  2  0  0  0  0
  1  2  1  0  0  0  0
  2  3  1  0  0  0  0
  3 10  1  0  0  0  0
  4  3  2  0  0  0  0
  4 13  1  0  0  0  0
  5  4  1  0  0  0  0
  6  5  1  0  0  0  0
  6  9  2  0  0  0  0
  7  6  1  0  0  0  0
  8  7  1  0  0  0  0
 10 11  1  0  0  0  0
 11 12  1  0  0  0  0
 12 14  1  6  0  0  0
 13 12  1  0  0  0  0
 14 18  1  0  0  0  0
 14 15  1  0  0  0  0
 15 16  1  0  0  0  0
 17 14  1  0  0  0  0
M  END
