results/cdk2///ligands/3QTQ.A.X35_476_A.lig
 OpenBabel09152019553D

 18 19  0  0  1  0  0  0  0  0999 V2000
  -65.3260  -82.0010  -86.0600 N   0  0  0  0  0  0  0  0  0  0  0  0
  -66.3280  -81.1600  -86.4100 C   0  0  0  0  0  0  0  0  0  0  0  0
  -66.7390  -81.0890  -87.6840 N   0  0  0  0  0  0  0  0  0  0  0  0
  -66.8490  -80.4050  -85.3510 C   0  0  0  0  0  0  0  0  0  0  0  0
  -67.8690  -79.4570  -85.4530 C   0  0  1  0  0  0  0  0  0  0  0  0
  -68.3940  -78.6320  -84.3090 C   0  0  0  0  0  0  0  0  0  0  0  0
  -69.7890  -78.4780  -84.0780 C   0  0  0  0  0  0  0  0  0  0  0  0
  -70.2250  -77.7000  -83.0130 N   0  0  0  0  0  0  0  0  0  0  0  0
  -69.3510  -77.0550  -82.1470 C   0  0  0  0  0  0  0  0  0  0  0  0
  -67.9590  -77.1720  -82.3370 C   0  0  0  0  0  0  0  0  0  0  0  0
  -67.4870  -77.9640  -83.4260 C   0  0  0  0  0  0  0  0  0  0  0  0
  -68.4480  -79.2160  -86.6480 O   0  0  0  0  0  0  0  0  0  0  0  0
  -66.0340  -80.8100  -83.8760 S   0  0  0  0  0  0  0  0  0  0  0  0
  -65.0590  -81.9250  -84.7510 C   0  0  0  0  0  0  0  0  0  0  0  0
  -64.0840  -82.6850  -84.1970 N   0  0  0  0  0  0  0  0  0  0  0  0
  -63.7740  -82.5690  -82.7760 C   0  0  0  0  0  0  0  0  0  0  0  0
  -62.4100  -81.9760  -82.5800 C   0  0  0  0  0  0  0  0  0  0  0  0
  -62.1950  -80.5310  -82.5310 C   0  0  0  0  0  0  0  0  0  0  0  0
  1 14  2  0  0  0  0
  2  1  1  0  0  0  0
  2  4  2  0  0  0  0
  3  2  1  0  0  0  0
  4 13  1  0  0  0  0
  5 12  1  6  0  0  0
  5  4  1  0  0  0  0
  5  6  1  0  0  0  0
  6  7  2  0  0  0  0
  6 11  1  0  0  0  0
  7  8  1  0  0  0  0
  8  9  2  0  0  0  0
 10  9  1  0  0  0  0
 11 10  2  0  0  0  0
 14 15  1  0  0  0  0
 14 13  1  0  0  0  0
 15 16  1  0  0  0  0
 16 17  1  0  0  0  0
 17 18  1  0  0  0  0
M  END
