results/cdk2///ligands/3QTW.A.X3A_451_A.lig
 OpenBabel09152019553D

 21 23  0  0  1  0  0  0  0  0999 V2000
   92.3700   10.3700  -86.9760 N   0  0  0  0  0  0  0  0  0  0  0  0
   93.4350    9.6370  -87.3250 C   0  0  0  0  0  0  0  0  0  0  0  0
   93.9080    9.7100  -88.5750 N   0  0  0  0  0  0  0  0  0  0  0  0
   93.9520    8.8320  -86.3000 C   0  0  0  0  0  0  0  0  0  0  0  0
   95.0470    7.9600  -86.3890 C   0  0  1  0  0  0  0  0  0  0  0  0
   95.5550    7.0720  -85.2750 C   0  0  0  0  0  0  0  0  0  0  0  0
   96.9630    6.8970  -84.9710 C   0  0  0  0  0  0  0  0  0  0  0  0
   97.3350    6.0390  -83.9240 N   0  0  0  0  0  0  0  0  0  0  0  0
   96.4100    5.3280  -83.1400 C   0  0  0  0  0  0  0  0  0  0  0  0
   95.0130    5.4600  -83.3990 C   0  0  0  0  0  0  0  0  0  0  0  0
   94.5920    6.3280  -84.4650 C   0  0  0  0  0  0  0  0  0  0  0  0
   95.7190    7.8530  -87.5460 O   0  0  0  0  0  0  0  0  0  0  0  0
   93.0330    9.0570  -84.8740 S   0  0  0  0  0  0  0  0  0  0  0  0
   92.0250   10.1750  -85.7000 C   0  0  0  0  0  0  0  0  0  0  0  0
   90.9390   10.8670  -85.1920 N   0  0  0  0  0  0  0  0  0  0  0  0
   90.3440   10.8550  -83.9370 C   0  0  0  0  0  0  0  0  0  0  0  0
   89.2110   11.7450  -83.7240 C   0  0  0  0  0  0  0  0  0  0  0  0
   88.5460   11.7920  -82.4520 C   0  0  0  0  0  0  0  0  0  0  0  0
   88.9940   10.9480  -81.3650 C   0  0  0  0  0  0  0  0  0  0  0  0
   90.1080   10.0550  -81.5450 C   0  0  0  0  0  0  0  0  0  0  0  0
   90.7770   10.0070  -82.8090 C   0  0  0  0  0  0  0  0  0  0  0  0
  1 14  2  0  0  0  0
  2  1  1  0  0  0  0
  2  4  2  0  0  0  0
  3  2  1  0  0  0  0
  4 13  1  0  0  0  0
  5 12  1  6  0  0  0
  5  4  1  0  0  0  0
  5  6  1  0  0  0  0
  6  7  2  0  0  0  0
  6 11  1  0  0  0  0
  7  8  1  0  0  0  0
  8  9  2  0  0  0  0
 10  9  1  0  0  0  0
 11 10  2  0  0  0  0
 14 15  1  0  0  0  0
 14 13  1  0  0  0  0
 15 16  1  0  0  0  0
 16 17  2  0  0  0  0
 16 21  1  0  0  0  0
 17 18  1  0  0  0  0
 18 19  2  0  0  0  0
 20 19  1  0  0  0  0
 21 20  2  0  0  0  0
M  END
