results/cdk2///ligands/3QTZ.A.X42_453_A.lig
 OpenBabel09152019553D

 26 28  0  0  1  0  0  0  0  0999 V2000
  -65.0970   25.4400  -86.3070 N   0  0  0  0  0  0  0  0  0  0  0  0
  -63.8670   24.8820  -84.5120 N   0  0  0  0  0  0  0  0  0  0  0  0
  -66.6120   26.2710  -87.8390 N   0  0  0  0  0  0  0  0  0  0  0  0
  -61.1610   26.6900  -78.6330 N   0  0  0  0  0  0  0  0  0  0  0  0
  -66.7520   26.9710  -85.6020 C   0  0  2  0  0  0  0  0  0  0  0  0
  -66.1790   26.2310  -86.6460 C   0  0  0  0  0  0  0  0  0  0  0  0
  -64.8350   25.5600  -85.0270 C   0  0  0  0  0  0  0  0  0  0  0  0
  -63.1480   25.1300  -83.4680 C   0  0  0  0  0  0  0  0  0  0  0  0
  -67.8490   27.8350  -85.7120 C   0  0  0  0  0  0  0  0  0  0  0  0
  -68.2710   28.6270  -84.6410 C   0  0  0  0  0  0  0  0  0  0  0  0
  -67.3390   29.4390  -83.8940 C   0  0  0  0  0  0  0  0  0  0  0  0
  -67.7900   30.2340  -82.8060 C   0  0  0  0  0  0  0  0  0  0  0  0
  -69.1620   30.2390  -82.4450 C   0  0  0  0  0  0  0  0  0  0  0  0
  -70.0920   29.4530  -83.1710 C   0  0  0  0  0  0  0  0  0  0  0  0
  -69.6560   28.6460  -84.2670 C   0  0  0  0  0  0  0  0  0  0  0  0
  -62.1540   24.1610  -83.1280 C   0  0  0  0  0  0  0  0  0  0  0  0
  -61.3110   24.3680  -82.0130 C   0  0  0  0  0  0  0  0  0  0  0  0
  -61.4590   25.5490  -81.2280 C   0  0  0  0  0  0  0  0  0  0  0  0
  -62.4440   26.5120  -81.5470 C   0  0  0  0  0  0  0  0  0  0  0  0
  -63.2860   26.3090  -82.6590 C   0  0  0  0  0  0  0  0  0  0  0  0
  -68.4610   27.8970  -86.7780 O   0  0  0  0  0  0  0  0  0  0  0  0
  -59.2810   26.6190  -80.3400 O   0  0  0  0  0  0  0  0  0  0  0  0
  -59.8810   24.5570  -79.3690 O   0  0  0  0  0  0  0  0  0  0  0  0
  -71.3740   29.4670  -82.8240 F   0  0  0  0  0  0  0  0  0  0  0  0
  -65.8720   26.6380  -84.1570 S   0  0  0  0  0  0  0  0  0  0  0  0
  -60.3810   25.8280  -79.8640 S   0  0  0  0  0  0  0  0  0  0  0  0
  1  7  2  0  0  0  0
  2  8  1  0  0  0  0
  3  6  2  0  0  0  0
  5  9  1  6  0  0  0
  5 25  1  0  0  0  0
  6  1  1  0  0  0  0
  6  5  1  0  0  0  0
  7  2  1  0  0  0  0
  7 25  1  0  0  0  0
  8 16  2  0  0  0  0
  8 20  1  0  0  0  0
  9 10  1  0  0  0  0
 10 15  2  0  0  0  0
 10 11  1  0  0  0  0
 11 12  2  0  0  0  0
 12 13  1  0  0  0  0
 14 24  1  0  0  0  0
 14 13  2  0  0  0  0
 15 14  1  0  0  0  0
 16 17  1  0  0  0  0
 17 18  2  0  0  0  0
 18 26  1  0  0  0  0
 19 18  1  0  0  0  0
 20 19  2  0  0  0  0
 21  9  2  0  0  0  0
 22 26  2  0  0  0  0
 26 23  2  0  0  0  0
 26  4  1  0  0  0  0
M  END
