results/cdk2///ligands/3QWJ.A.X6A_483_A.lig
 OpenBabel09152019553D

 22 23  0  0  0  0  0  0  0  0999 V2000
  -37.4410  -81.8460  -47.7070 N   0  0  0  0  0  0  0  0  0  0  0  0
  -40.0510  -81.3750  -50.8530 N   0  0  0  0  0  0  0  0  0  0  0  0
  -35.8920  -82.9930  -43.3940 N   0  0  0  0  0  0  0  0  0  0  0  0
  -35.7640  -84.7910  -45.0100 N   0  0  0  0  0  0  0  0  0  0  0  0
  -42.5940  -80.1710  -46.7250 N   0  0  0  0  0  0  0  0  0  0  0  0
  -35.6100  -85.1330  -42.7900 N   0  0  0  0  0  0  0  0  0  0  0  0
  -40.9880  -81.0090  -48.2290 C   0  0  0  0  0  0  0  0  0  0  0  0
  -39.6520  -81.4530  -48.5130 C   0  0  0  0  0  0  0  0  0  0  0  0
  -38.6680  -81.4510  -47.4700 C   0  0  0  0  0  0  0  0  0  0  0  0
  -39.0550  -81.0200  -46.1710 C   0  0  0  0  0  0  0  0  0  0  0  0
  -40.3630  -80.5920  -45.8880 C   0  0  0  0  0  0  0  0  0  0  0  0
  -41.3680  -80.5700  -46.9260 C   0  0  0  0  0  0  0  0  0  0  0  0
  -39.3560  -81.8750  -49.7860 C   0  0  0  0  0  0  0  0  0  0  0  0
  -36.2640  -81.4770  -46.8680 C   0  0  0  0  0  0  0  0  0  0  0  0
  -36.0760  -82.4890  -45.7700 C   0  0  0  0  0  0  0  0  0  0  0  0
  -36.0480  -82.1170  -44.4230 C   0  0  0  0  0  0  0  0  0  0  0  0
  -35.7560  -84.3020  -43.7370 C   0  0  0  0  0  0  0  0  0  0  0  0
  -35.9270  -83.8610  -46.0070 C   0  0  0  0  0  0  0  0  0  0  0  0
  -38.4910  -82.7100  -49.9740 O   0  0  0  0  0  0  0  0  0  0  0  0
  -43.0070  -79.7370  -45.5610 O   0  0  0  0  0  0  0  0  0  0  0  0
  -43.4650  -80.1860  -47.7000 O   0  0  0  0  0  0  0  0  0  0  0  0
  -40.6770  -80.1290  -44.2820 Cl  0  0  0  0  0  0  0  0  0  0  0  0
  1  9  1  0  0  0  0
  1 14  1  0  0  0  0
  2 13  1  0  0  0  0
  4 17  1  0  0  0  0
  5 20  2  0  0  0  0
  7 12  1  0  0  0  0
  8  7  2  0  0  0  0
  8  9  1  0  0  0  0
  9 10  2  0  0  0  0
 10 11  1  0  0  0  0
 11 22  1  0  0  0  0
 12  5  1  0  0  0  0
 12 11  2  0  0  0  0
 13  8  1  0  0  0  0
 14 15  1  0  0  0  0
 15 16  2  0  0  0  0
 16  3  1  0  0  0  0
 17  3  2  0  0  0  0
 17  6  1  0  0  0  0
 18 15  1  0  0  0  0
 18  4  2  0  0  0  0
 19 13  2  0  0  0  0
 21  5  2  0  0  0  0
M  END
