results/cdk2///ligands/3QWK.A.X62_493_A.lig
 OpenBabel09152019543D

 22 23  0  0  0  0  0  0  0  0999 V2000
  -64.4040   25.4100  -84.1470 N   0  0  0  0  0  0  0  0  0  0  0  0
  -67.0160   25.9550  -87.2430 N   0  0  0  0  0  0  0  0  0  0  0  0
  -62.7740   22.2730  -81.8890 N   0  0  0  0  0  0  0  0  0  0  0  0
  -62.0470   23.8760  -80.2460 N   0  0  0  0  0  0  0  0  0  0  0  0
  -69.4950   27.1060  -83.0310 N   0  0  0  0  0  0  0  0  0  0  0  0
  -67.9330   26.2930  -84.5870 C   0  0  0  0  0  0  0  0  0  0  0  0
  -66.6070   25.8380  -84.9060 C   0  0  0  0  0  0  0  0  0  0  0  0
  -65.6080   25.8060  -83.8780 C   0  0  0  0  0  0  0  0  0  0  0  0
  -65.9610   26.2060  -82.5500 C   0  0  0  0  0  0  0  0  0  0  0  0
  -67.2640   26.6400  -82.2340 C   0  0  0  0  0  0  0  0  0  0  0  0
  -68.2820   26.7020  -83.2630 C   0  0  0  0  0  0  0  0  0  0  0  0
  -66.3260   25.4340  -86.1910 C   0  0  0  0  0  0  0  0  0  0  0  0
  -63.2180   25.7850  -83.3350 C   0  0  0  0  0  0  0  0  0  0  0  0
  -62.8810   24.6610  -82.3920 C   0  0  0  0  0  0  0  0  0  0  0  0
  -63.0700   23.3100  -82.7240 C   0  0  0  0  0  0  0  0  0  0  0  0
  -62.2710   22.6090  -80.6810 C   0  0  0  0  0  0  0  0  0  0  0  0
  -62.3610   24.8810  -81.1210 C   0  0  0  0  0  0  0  0  0  0  0  0
  -65.4890   24.5630  -86.3970 O   0  0  0  0  0  0  0  0  0  0  0  0
  -70.4830   26.6980  -83.7800 O   0  0  0  0  0  0  0  0  0  0  0  0
  -69.7710   27.9670  -82.0710 O   0  0  0  0  0  0  0  0  0  0  0  0
  -67.5660   27.0700  -80.6040 Cl  0  0  0  0  0  0  0  0  0  0  0  0
  -61.8830   21.3200  -79.6130 Cl  0  0  0  0  0  0  0  0  0  0  0  0
  1  8  1  0  0  0  0
  1 13  1  0  0  0  0
  2 12  1  0  0  0  0
  3 16  2  0  0  0  0
  5 20  2  0  0  0  0
  6 11  1  0  0  0  0
  7  6  2  0  0  0  0
  7  8  1  0  0  0  0
  8  9  2  0  0  0  0
  9 10  1  0  0  0  0
 10 21  1  0  0  0  0
 11  5  1  0  0  0  0
 11 10  2  0  0  0  0
 12  7  1  0  0  0  0
 13 14  1  0  0  0  0
 14 17  1  0  0  0  0
 15 14  2  0  0  0  0
 15  3  1  0  0  0  0
 16  4  1  0  0  0  0
 16 22  1  0  0  0  0
 17  4  2  0  0  0  0
 18 12  2  0  0  0  0
 19  5  2  0  0  0  0
M  END
