results/cdk2///ligands/3QX2.A.X63_300_A.lig
 OpenBabel09152019553D

 25 26  0  0  0  0  0  0  0  0999 V2000
   77.3910   29.9470   64.2970 N   0  0  0  0  0  0  0  0  0  0  0  0
   80.5380   32.6440   64.2860 N   0  0  0  0  0  0  0  0  0  0  0  0
   75.7650   25.6170   65.3740 N   0  0  0  0  0  0  0  0  0  0  0  0
   76.2240   27.0380   67.2720 N   0  0  0  0  0  0  0  0  0  0  0  0
   80.1010   26.6700   62.1580 N   0  0  0  0  0  0  0  0  0  0  0  0
   75.9660   24.8090   67.4810 N   0  0  0  0  0  0  0  0  0  0  0  0
   82.3120   28.2910   62.4750 N   0  0  0  0  0  0  0  0  0  0  0  0
   81.0120   29.9490   63.5420 C   0  0  0  0  0  0  0  0  0  0  0  0
   79.7370   30.4040   64.0270 C   0  0  0  0  0  0  0  0  0  0  0  0
   78.5760   29.5520   63.8610 C   0  0  0  0  0  0  0  0  0  0  0  0
   78.7440   28.2780   63.2120 C   0  0  0  0  0  0  0  0  0  0  0  0
   80.0020   27.8340   62.7360 C   0  0  0  0  0  0  0  0  0  0  0  0
   81.1570   28.6690   62.8970 C   0  0  0  0  0  0  0  0  0  0  0  0
   79.6600   31.6590   64.6360 C   0  0  0  0  0  0  0  0  0  0  0  0
   76.0970   29.2060   64.1160 C   0  0  0  0  0  0  0  0  0  0  0  0
   76.0420   28.0140   65.0480 C   0  0  0  0  0  0  0  0  0  0  0  0
   75.8010   26.7230   64.5780 C   0  0  0  0  0  0  0  0  0  0  0  0
   75.9850   25.8300   66.7060 C   0  0  0  0  0  0  0  0  0  0  0  0
   76.2490   28.1110   66.4290 C   0  0  0  0  0  0  0  0  0  0  0  0
   79.0820   26.1850   61.1910 C   0  0  0  0  0  0  0  0  0  0  0  0
   78.4890   24.8760   61.6930 C   0  0  0  0  0  0  0  0  0  0  0  0
   78.8180   31.9130   65.4810 O   0  0  0  0  0  0  0  0  0  0  0  0
   79.5180   23.9300   61.8410 O   0  0  0  0  0  0  0  0  0  0  0  0
   82.4410   27.2560   61.6720 O   0  0  0  0  0  0  0  0  0  0  0  0
   83.4010   28.9350   62.8380 O   0  0  0  0  0  0  0  0  0  0  0  0
  2 14  1  0  0  0  0
  3 18  2  0  0  0  0
  5 12  1  0  0  0  0
  7 25  2  0  0  0  0
  7 13  1  0  0  0  0
  8  9  1  0  0  0  0
  9 14  1  0  0  0  0
 10  9  2  0  0  0  0
 10  1  1  0  0  0  0
 11 10  1  0  0  0  0
 12 13  1  0  0  0  0
 12 11  2  0  0  0  0
 13  8  2  0  0  0  0
 14 22  2  0  0  0  0
 15  1  1  0  0  0  0
 15 16  1  0  0  0  0
 16 19  1  0  0  0  0
 17 16  2  0  0  0  0
 17  3  1  0  0  0  0
 18  4  1  0  0  0  0
 18  6  1  0  0  0  0
 19  4  2  0  0  0  0
 20 21  1  0  0  0  0
 20  5  1  0  0  0  0
 21 23  1  0  0  0  0
 24  7  2  0  0  0  0
M  END
