results/cdk2///ligands/3QX4.A.X4B_454_A.lig
 OpenBabel09152019553D

 21 22  0  0  0  0  0  0  0  0999 V2000
   39.8570   81.1540  -51.0450 N   0  0  0  0  0  0  0  0  0  0  0  0
   37.2670   81.7040  -47.9140 N   0  0  0  0  0  0  0  0  0  0  0  0
   35.3920   83.1720  -43.7610 N   0  0  0  0  0  0  0  0  0  0  0  0
   42.3930   79.9590  -46.9320 N   0  0  0  0  0  0  0  0  0  0  0  0
   40.7910   80.8040  -48.4290 C   0  0  0  0  0  0  0  0  0  0  0  0
   39.4640   81.2670  -48.7120 C   0  0  0  0  0  0  0  0  0  0  0  0
   38.4820   81.2890  -47.6670 C   0  0  0  0  0  0  0  0  0  0  0  0
   38.8650   80.8540  -46.3510 C   0  0  0  0  0  0  0  0  0  0  0  0
   40.1860   80.4030  -46.0720 C   0  0  0  0  0  0  0  0  0  0  0  0
   41.1750   80.3660  -47.1250 C   0  0  0  0  0  0  0  0  0  0  0  0
   39.1710   81.6850  -49.9880 C   0  0  0  0  0  0  0  0  0  0  0  0
   36.0910   81.3700  -47.0610 C   0  0  0  0  0  0  0  0  0  0  0  0
   35.8290   82.4810  -46.0710 C   0  0  0  0  0  0  0  0  0  0  0  0
   35.6350   82.1980  -44.7040 C   0  0  0  0  0  0  0  0  0  0  0  0
   35.3380   84.4830  -44.1850 C   0  0  0  0  0  0  0  0  0  0  0  0
   35.5210   84.8660  -45.5250 C   0  0  0  0  0  0  0  0  0  0  0  0
   35.7700   83.8420  -46.4760 C   0  0  0  0  0  0  0  0  0  0  0  0
   38.3250   82.5470  -50.1910 O   0  0  0  0  0  0  0  0  0  0  0  0
   43.3650   80.3930  -47.6970 O   0  0  0  0  0  0  0  0  0  0  0  0
   42.6940   79.0860  -46.0000 O   0  0  0  0  0  0  0  0  0  0  0  0
   40.5460   79.9230  -44.4610 Cl  0  0  0  0  0  0  0  0  0  0  0  0
  1 11  1  0  0  0  0
  2  7  1  0  0  0  0
  2 12  1  0  0  0  0
  4 20  2  0  0  0  0
  5 10  1  0  0  0  0
  6  5  2  0  0  0  0
  6  7  1  0  0  0  0
  7  8  2  0  0  0  0
  8  9  1  0  0  0  0
  9 21  1  0  0  0  0
 10  4  1  0  0  0  0
 10  9  2  0  0  0  0
 11  6  1  0  0  0  0
 12 13  1  0  0  0  0
 13 14  1  0  0  0  0
 14  3  2  0  0  0  0
 15  3  1  0  0  0  0
 16 15  2  0  0  0  0
 17 13  2  0  0  0  0
 17 16  1  0  0  0  0
 18 11  2  0  0  0  0
 19  4  2  0  0  0  0
M  END
