results/cdk2///ligands/3QZI.A.X72_512_A.lig
 OpenBabel09152019543D

 21 22  0  0  0  0  0  0  0  0999 V2000
  -64.5620  -10.3250   24.1190 N   0  0  0  0  0  0  0  0  0  0  0  0
  -67.1400   -9.8030   20.9890 N   0  0  0  0  0  0  0  0  0  0  0  0
  -62.2420  -11.6590   28.1310 N   0  0  0  0  0  0  0  0  0  0  0  0
  -62.9850  -13.3460   26.5750 N   0  0  0  0  0  0  0  0  0  0  0  0
  -69.6910   -8.5930   25.1230 N   0  0  0  0  0  0  0  0  0  0  0  0
  -68.0970   -9.4370   23.6120 C   0  0  0  0  0  0  0  0  0  0  0  0
  -66.7670   -9.9010   23.3240 C   0  0  0  0  0  0  0  0  0  0  0  0
  -65.7820   -9.9190   24.3660 C   0  0  0  0  0  0  0  0  0  0  0  0
  -66.1580   -9.4950   25.6780 C   0  0  0  0  0  0  0  0  0  0  0  0
  -67.4700   -9.0510   25.9620 C   0  0  0  0  0  0  0  0  0  0  0  0
  -68.4710   -9.0030   24.9180 C   0  0  0  0  0  0  0  0  0  0  0  0
  -66.4780  -10.3260   22.0480 C   0  0  0  0  0  0  0  0  0  0  0  0
  -63.3840   -9.9190   24.9250 C   0  0  0  0  0  0  0  0  0  0  0  0
  -63.0610  -10.9940   25.9320 C   0  0  0  0  0  0  0  0  0  0  0  0
  -62.5400  -10.7060   27.1940 C   0  0  0  0  0  0  0  0  0  0  0  0
  -62.4810  -12.9480   27.7730 C   0  0  0  0  0  0  0  0  0  0  0  0
  -63.2620  -12.3570   25.6800 C   0  0  0  0  0  0  0  0  0  0  0  0
  -65.6680  -11.2230   21.8610 O   0  0  0  0  0  0  0  0  0  0  0  0
  -69.9970   -7.8350   26.1450 O   0  0  0  0  0  0  0  0  0  0  0  0
  -70.6600   -8.8900   24.2780 O   0  0  0  0  0  0  0  0  0  0  0  0
  -67.8010   -8.5940   27.5810 Cl  0  0  0  0  0  0  0  0  0  0  0  0
  1  8  1  0  0  0  0
  1 13  1  0  0  0  0
  2 12  1  0  0  0  0
  4 16  2  0  0  0  0
  5 19  2  0  0  0  0
  6 11  1  0  0  0  0
  7  6  2  0  0  0  0
  7  8  1  0  0  0  0
  8  9  2  0  0  0  0
  9 10  1  0  0  0  0
 10 21  1  0  0  0  0
 11  5  1  0  0  0  0
 11 10  2  0  0  0  0
 12  7  1  0  0  0  0
 13 14  1  0  0  0  0
 14 15  1  0  0  0  0
 15  3  2  0  0  0  0
 16  3  1  0  0  0  0
 17 14  2  0  0  0  0
 17  4  1  0  0  0  0
 18 12  2  0  0  0  0
 20  5  2  0  0  0  0
M  END
