results/cdk2///ligands/3R1S.A.X73_647_A.lig
 OpenBabel09152019553D

 21 22  0  0  0  0  0  0  0  0999 V2000
   64.1080   81.8180  -12.3060 N   0  0  0  0  0  0  0  0  0  0  0  0
   66.8250   81.4370  -15.3220 N   0  0  0  0  0  0  0  0  0  0  0  0
   62.3790   84.9190   -9.9330 N   0  0  0  0  0  0  0  0  0  0  0  0
   69.0860   79.8640  -11.1020 N   0  0  0  0  0  0  0  0  0  0  0  0
   67.6370   80.8780  -12.6570 C   0  0  0  0  0  0  0  0  0  0  0  0
   66.3380   81.3910  -12.9830 C   0  0  0  0  0  0  0  0  0  0  0  0
   65.2880   81.3480  -11.9990 C   0  0  0  0  0  0  0  0  0  0  0  0
   65.5710   80.7850  -10.7000 C   0  0  0  0  0  0  0  0  0  0  0  0
   66.8690   80.2790  -10.3930 C   0  0  0  0  0  0  0  0  0  0  0  0
   67.9140   80.3210  -11.3720 C   0  0  0  0  0  0  0  0  0  0  0  0
   66.1210   81.9170  -14.2450 C   0  0  0  0  0  0  0  0  0  0  0  0
   62.8560   81.4930  -11.5870 C   0  0  0  0  0  0  0  0  0  0  0  0
   62.5670   82.5530  -10.5540 C   0  0  0  0  0  0  0  0  0  0  0  0
   62.6330   83.9300  -10.8600 C   0  0  0  0  0  0  0  0  0  0  0  0
   62.0450   84.5210   -8.6550 C   0  0  0  0  0  0  0  0  0  0  0  0
   61.9540   83.1770   -8.2590 C   0  0  0  0  0  0  0  0  0  0  0  0
   62.2230   82.1860   -9.2340 C   0  0  0  0  0  0  0  0  0  0  0  0
   65.2990   82.7960  -14.4200 O   0  0  0  0  0  0  0  0  0  0  0  0
   69.2840   79.1120  -10.0400 O   0  0  0  0  0  0  0  0  0  0  0  0
   70.1190   80.1260  -11.8910 O   0  0  0  0  0  0  0  0  0  0  0  0
   61.7190   85.7270   -7.4790 Cl  0  0  0  0  0  0  0  0  0  0  0  0
  1  7  1  0  0  0  0
  1 12  1  0  0  0  0
  2 11  1  0  0  0  0
  3 15  1  0  0  0  0
  4 19  2  0  0  0  0
  5 10  1  0  0  0  0
  6  5  2  0  0  0  0
  6  7  1  0  0  0  0
  7  8  2  0  0  0  0
  8  9  1  0  0  0  0
 10  4  1  0  0  0  0
 10  9  2  0  0  0  0
 11  6  1  0  0  0  0
 12 13  1  0  0  0  0
 13 17  2  0  0  0  0
 14 13  1  0  0  0  0
 14  3  2  0  0  0  0
 15 16  2  0  0  0  0
 15 21  1  0  0  0  0
 17 16  1  0  0  0  0
 18 11  2  0  0  0  0
 20  4  2  0  0  0  0
M  END
