results/cdk2///ligands/3R6X.A.X84_778_A.lig
 OpenBabel09152019553D

 25 26  0  0  0  0  0  0  0  0999 V2000
  -64.0990  -10.1890   23.9820 N   0  0  0  0  0  0  0  0  0  0  0  0
  -66.9810   -9.9660   21.0520 N   0  0  0  0  0  0  0  0  0  0  0  0
  -62.0250  -11.5060   28.1300 N   0  0  0  0  0  0  0  0  0  0  0  0
  -67.0420   -8.1800   27.1150 N   0  0  0  0  0  0  0  0  0  0  0  0
  -69.1280   -8.3490   25.2680 N   0  0  0  0  0  0  0  0  0  0  0  0
  -67.6680   -9.3470   23.7110 C   0  0  0  0  0  0  0  0  0  0  0  0
  -66.3700   -9.8340   23.3530 C   0  0  0  0  0  0  0  0  0  0  0  0
  -65.2870   -9.7470   24.3030 C   0  0  0  0  0  0  0  0  0  0  0  0
  -65.5440   -9.1720   25.5900 C   0  0  0  0  0  0  0  0  0  0  0  0
  -66.8450   -8.6860   25.9470 C   0  0  0  0  0  0  0  0  0  0  0  0
  -67.9280   -8.7730   24.9930 C   0  0  0  0  0  0  0  0  0  0  0  0
  -66.1930  -10.3770   22.0970 C   0  0  0  0  0  0  0  0  0  0  0  0
  -62.8520   -9.9280   24.7480 C   0  0  0  0  0  0  0  0  0  0  0  0
  -62.6420  -10.9760   25.8230 C   0  0  0  0  0  0  0  0  0  0  0  0
  -62.2290  -10.6010   27.1090 C   0  0  0  0  0  0  0  0  0  0  0  0
  -62.2460  -12.8410   27.8590 C   0  0  0  0  0  0  0  0  0  0  0  0
  -62.6620  -13.3130   26.6030 C   0  0  0  0  0  0  0  0  0  0  0  0
  -62.8600  -12.3620   25.5750 C   0  0  0  0  0  0  0  0  0  0  0  0
  -66.0120   -7.3640   27.8110 C   0  0  0  0  0  0  0  0  0  0  0  0
  -65.7790   -7.9410   29.2030 C   0  0  0  0  0  0  0  0  0  0  0  0
  -64.2950   -8.2040   29.4020 C   0  0  0  0  0  0  0  0  0  0  0  0
  -65.3490  -11.2190   21.8990 O   0  0  0  0  0  0  0  0  0  0  0  0
  -64.1250   -9.3500   30.2010 O   0  0  0  0  0  0  0  0  0  0  0  0
  -69.3920   -7.7350   26.3950 O   0  0  0  0  0  0  0  0  0  0  0  0
  -70.1200   -8.5340   24.4170 O   0  0  0  0  0  0  0  0  0  0  0  0
  1  8  1  0  0  0  0
  1 13  1  0  0  0  0
  2 12  1  0  0  0  0
  4 19  1  0  0  0  0
  5 24  2  0  0  0  0
  6 11  1  0  0  0  0
  7  6  2  0  0  0  0
  7  8  1  0  0  0  0
  8  9  2  0  0  0  0
  9 10  1  0  0  0  0
 10  4  1  0  0  0  0
 11  5  1  0  0  0  0
 11 10  2  0  0  0  0
 12  7  1  0  0  0  0
 13 14  1  0  0  0  0
 14 15  1  0  0  0  0
 15  3  2  0  0  0  0
 16  3  1  0  0  0  0
 17 16  2  0  0  0  0
 18 14  2  0  0  0  0
 18 17  1  0  0  0  0
 19 20  1  0  0  0  0
 20 21  1  0  0  0  0
 21 23  1  0  0  0  0
 22 12  2  0  0  0  0
 25  5  2  0  0  0  0
M  END
