results/cdk2///ligands/3R73.A.X87_920_A.lig
 OpenBabel09152019543D

 25 26  0  0  0  0  0  0  0  0999 V2000
   63.8200   45.8970  -12.3280 N   0  0  0  0  0  0  0  0  0  0  0  0
   66.8240   45.6130  -15.1170 N   0  0  0  0  0  0  0  0  0  0  0  0
   61.9330   47.2870   -8.1200 N   0  0  0  0  0  0  0  0  0  0  0  0
   66.4590   43.6780   -9.0750 N   0  0  0  0  0  0  0  0  0  0  0  0
   66.2930   42.0990   -4.9430 N   0  0  0  0  0  0  0  0  0  0  0  0
   68.6460   43.8270  -10.7670 N   0  0  0  0  0  0  0  0  0  0  0  0
   67.3640   44.9260  -12.4000 C   0  0  0  0  0  0  0  0  0  0  0  0
   66.1120   45.4740  -12.8330 C   0  0  0  0  0  0  0  0  0  0  0  0
   64.9730   45.4000  -11.9550 C   0  0  0  0  0  0  0  0  0  0  0  0
   65.1230   44.7740  -10.6690 C   0  0  0  0  0  0  0  0  0  0  0  0
   66.3640   44.2310  -10.2420 C   0  0  0  0  0  0  0  0  0  0  0  0
   67.5050   44.3050  -11.1150 C   0  0  0  0  0  0  0  0  0  0  0  0
   66.0310   46.0610  -14.0920 C   0  0  0  0  0  0  0  0  0  0  0  0
   62.5470   45.7320  -11.5620 C   0  0  0  0  0  0  0  0  0  0  0  0
   62.4250   46.7710  -10.4650 C   0  0  0  0  0  0  0  0  0  0  0  0
   62.0580   46.3910   -9.1590 C   0  0  0  0  0  0  0  0  0  0  0  0
   62.1850   48.6200   -8.3880 C   0  0  0  0  0  0  0  0  0  0  0  0
   62.5580   49.0930   -9.6590 C   0  0  0  0  0  0  0  0  0  0  0  0
   62.6770   48.1480  -10.7090 C   0  0  0  0  0  0  0  0  0  0  0  0
   65.3830   42.8230   -8.5130 C   0  0  0  0  0  0  0  0  0  0  0  0
   65.3460   42.9800   -6.9970 C   0  0  0  0  0  0  0  0  0  0  0  0
   66.1280   41.8400   -6.3510 C   0  0  0  0  0  0  0  0  0  0  0  0
   65.2530   46.9620  -14.3120 O   0  0  0  0  0  0  0  0  0  0  0  0
   68.7310   42.7890   -9.9570 O   0  0  0  0  0  0  0  0  0  0  0  0
   69.7600   44.3660  -11.2230 O   0  0  0  0  0  0  0  0  0  0  0  0
  1  9  1  0  0  0  0
  1 14  1  0  0  0  0
  2 13  1  0  0  0  0
  4 20  1  0  0  0  0
  6 24  2  0  0  0  0
  7 12  1  0  0  0  0
  8  7  2  0  0  0  0
  8  9  1  0  0  0  0
  9 10  2  0  0  0  0
 10 11  1  0  0  0  0
 11  4  1  0  0  0  0
 12  6  1  0  0  0  0
 12 11  2  0  0  0  0
 13  8  1  0  0  0  0
 14 15  1  0  0  0  0
 15 16  1  0  0  0  0
 16  3  2  0  0  0  0
 17  3  1  0  0  0  0
 18 17  2  0  0  0  0
 19 15  2  0  0  0  0
 19 18  1  0  0  0  0
 20 21  1  0  0  0  0
 21 22  1  0  0  0  0
 22  5  1  0  0  0  0
 23 13  2  0  0  0  0
 25  6  2  0  0  0  0
M  END
