results/cdk2///ligands/3R7E.A.X88_919_A.lig
 OpenBabel09152019553D

 20 21  0  0  0  0  0  0  0  0999 V2000
   65.4230   45.1700  -46.3670 C   0  0  0  0  0  0  0  0  0  0  0  0
   66.7090   44.7350  -45.9590 C   0  0  0  0  0  0  0  0  0  0  0  0
   67.8450   44.8320  -46.8280 C   0  0  0  0  0  0  0  0  0  0  0  0
   67.6310   45.3970  -48.1410 C   0  0  0  0  0  0  0  0  0  0  0  0
   66.3320   45.8590  -48.6080 C   0  0  0  0  0  0  0  0  0  0  0  0
   65.1760   45.7390  -47.6880 C   0  0  0  0  0  0  0  0  0  0  0  0
   63.9530   46.1300  -48.0730 N   0  0  0  0  0  0  0  0  0  0  0  0
   66.2310   46.3570  -49.9150 C   0  0  0  0  0  0  0  0  0  0  0  0
   67.0760   45.9770  -50.9240 N   0  0  0  0  0  0  0  0  0  0  0  0
   65.2630   47.2340  -50.2420 O   0  0  0  0  0  0  0  0  0  0  0  0
   69.0720   44.4090  -46.4370 N   0  0  0  0  0  0  0  0  0  0  0  0
   70.1450   44.4930  -47.2500 O   0  0  0  0  0  0  0  0  0  0  0  0
   69.2600   43.9320  -45.3310 O   0  0  0  0  0  0  0  0  0  0  0  0
   62.6990   46.0640  -47.2880 C   0  0  0  0  0  0  0  0  0  0  0  0
   61.9820   49.4530  -44.6710 C   0  0  0  0  0  0  0  0  0  0  0  0
   62.8680   49.5620  -45.7240 N   0  0  0  0  0  0  0  0  0  0  0  0
   63.1330   48.5190  -46.5870 C   0  0  0  0  0  0  0  0  0  0  0  0
   62.4680   47.2730  -46.3860 C   0  0  0  0  0  0  0  0  0  0  0  0
   61.5760   47.1740  -45.3210 N   0  0  0  0  0  0  0  0  0  0  0  0
   61.3170   48.2260  -44.4620 C   0  0  0  0  0  0  0  0  0  0  0  0
  1  2  1  0  0  0  0
  3 11  1  0  0  0  0
  3  2  2  0  0  0  0
  4  3  1  0  0  0  0
  5  4  2  0  0  0  0
  5  6  1  0  0  0  0
  6  1  2  0  0  0  0
  7  6  1  0  0  0  0
  7 14  1  0  0  0  0
  8  5  1  0  0  0  0
  9  8  1  0  0  0  0
 10  8  2  0  0  0  0
 11 13  2  0  0  0  0
 12 11  2  0  0  0  0
 14 18  1  0  0  0  0
 15 20  1  0  0  0  0
 16 15  2  0  0  0  0
 17 18  2  0  0  0  0
 17 16  1  0  0  0  0
 18 19  1  0  0  0  0
 19 20  2  0  0  0  0
M  END
