results/cdk2///ligands/3R8Z.A.Z63_440_A.lig
 OpenBabel09152019553D

 18 19  0  0  1  0  0  0  0  0999 V2000
  -64.7410  -46.5530  -49.0630 N   0  0  0  0  0  0  0  0  0  0  0  0
  -65.7440  -45.7430  -49.4020 C   0  0  0  0  0  0  0  0  0  0  0  0
  -66.1350  -45.6630  -50.6820 N   0  0  0  0  0  0  0  0  0  0  0  0
  -66.3060  -45.0190  -48.3400 C   0  0  0  0  0  0  0  0  0  0  0  0
  -67.3590  -44.1040  -48.4410 C   0  0  2  0  0  0  0  0  0  0  0  0
  -67.9510  -43.3370  -47.2960 C   0  0  0  0  0  0  0  0  0  0  0  0
  -67.1420  -42.5970  -46.3750 C   0  0  0  0  0  0  0  0  0  0  0  0
  -67.7650  -41.8900  -45.3130 C   0  0  0  0  0  0  0  0  0  0  0  0
  -69.1450  -41.9230  -45.1820 N   0  0  0  0  0  0  0  0  0  0  0  0
  -69.9570  -42.6260  -46.0530 C   0  0  0  0  0  0  0  0  0  0  0  0
  -69.3790  -43.3480  -47.1280 C   0  0  0  0  0  0  0  0  0  0  0  0
  -67.9310  -43.8540  -49.6470 O   0  0  0  0  0  0  0  0  0  0  0  0
  -65.5030  -45.4110  -46.8510 S   0  0  0  0  0  0  0  0  0  0  0  0
  -64.4830  -46.4940  -47.7480 C   0  0  0  0  0  0  0  0  0  0  0  0
  -63.4770  -47.2460  -47.2030 N   0  0  0  0  0  0  0  0  0  0  0  0
  -63.1360  -47.1160  -45.7990 C   0  0  0  0  0  0  0  0  0  0  0  0
  -61.8620  -46.3450  -45.6380 C   0  0  0  0  0  0  0  0  0  0  0  0
  -61.8490  -44.8820  -45.6440 C   0  0  0  0  0  0  0  0  0  0  0  0
  1 14  2  0  0  0  0
  2  1  1  0  0  0  0
  2  4  2  0  0  0  0
  3  2  1  0  0  0  0
  4 13  1  0  0  0  0
  5 12  1  1  0  0  0
  5  4  1  0  0  0  0
  5  6  1  0  0  0  0
  6 11  2  0  0  0  0
  6  7  1  0  0  0  0
  7  8  2  0  0  0  0
  8  9  1  0  0  0  0
 10  9  2  0  0  0  0
 11 10  1  0  0  0  0
 14 15  1  0  0  0  0
 14 13  1  0  0  0  0
 15 16  1  0  0  0  0
 16 17  1  0  0  0  0
 18 17  1  0  0  0  0
M  END
