results/cdk2///ligands/3R9N.A.Z68_529_A.lig
 OpenBabel09152019543D

 24 26  0  0  1  0  0  0  0  0999 V2000
   94.8620   76.6930  -45.8750 C   0  0  0  0  0  0  0  0  0  0  0  0
   94.9440   78.9130  -44.7530 N   0  0  0  0  0  0  0  0  0  0  0  0
   94.8530   80.2470  -44.7500 O   0  0  0  0  0  0  0  0  0  0  0  0
   92.1840   80.5770  -48.3090 S   0  0  0  0  0  0  0  0  0  0  0  0
   94.7740   78.2150  -45.8330 C   0  0  0  0  0  0  0  0  0  0  0  0
   91.8030   81.6670  -50.6500 N   0  0  0  0  0  0  0  0  0  0  0  0
   95.1920   78.3960  -43.6880 O   0  0  0  0  0  0  0  0  0  0  0  0
   94.4670   78.8940  -47.1590 C   0  0  0  0  0  0  0  0  0  0  0  0
   90.5050   82.6090  -48.8930 N   0  0  0  0  0  0  0  0  0  0  0  0
   94.5990   78.4450  -50.6810 O   0  0  0  0  0  0  0  0  0  0  0  0
   94.2690   78.1860  -48.3590 C   0  0  0  0  0  0  0  0  0  0  0  0
   93.2430   80.4430  -52.0780 N   0  0  0  0  0  0  0  0  0  0  0  0
   94.3710   76.6540  -48.3270 C   0  0  0  0  0  0  0  0  0  0  0  0
   94.6480   75.9630  -47.1650 C   0  0  0  0  0  0  0  0  0  0  0  0
   93.9930   78.8440  -49.5550 C   0  0  0  0  0  0  0  0  0  0  0  0
   93.0320   79.9930  -49.6790 C   0  0  0  0  0  0  0  0  0  0  0  0
   92.7130   80.6940  -50.8440 C   0  0  2  0  0  0  0  0  0  0  0  0
   91.4280   81.7140  -49.3460 C   0  0  0  0  0  0  0  0  0  0  0  0
   89.9070   82.4370  -47.5640 C   0  0  0  0  0  0  0  0  0  0  0  0
   88.8040   81.2880  -47.5510 C   0  0  0  0  0  0  0  0  0  0  0  0
   88.1840   81.1220  -46.1390 C   0  0  0  0  0  0  0  0  0  0  0  0
   87.5940   82.4860  -45.6290 C   0  0  0  0  0  0  0  0  0  0  0  0
   88.6370   83.6490  -45.6870 C   0  0  0  0  0  0  0  0  0  0  0  0
   89.2830   83.7890  -47.0990 C   0  0  0  0  0  0  0  0  0  0  0  0
  1  5  1  0  0  0  0
  2  3  2  0  0  0  0
  2  7  2  0  0  0  0
  5  2  1  0  0  0  0
  6 18  2  0  0  0  0
  8  5  2  0  0  0  0
  9 19  1  0  0  0  0
 10 15  1  0  0  0  0
 11 13  2  0  0  0  0
 11  8  1  0  0  0  0
 13 14  1  0  0  0  0
 14  1  2  0  0  0  0
 15 11  1  0  0  0  0
 16 15  2  0  0  0  0
 16  4  1  0  0  0  0
 17 12  1  6  0  0  0
 17  6  1  0  0  0  0
 17 16  1  0  0  0  0
 18  9  1  0  0  0  0
 18  4  1  0  0  0  0
 19 20  1  0  0  0  0
 19 24  1  0  0  0  0
 20 21  1  0  0  0  0
 21 22  1  0  0  0  0
 23 22  1  0  0  0  0
 24 23  1  0  0  0  0
M  END
