results/cdk2///ligands/3RAH.A.O1Z_516_A.lig
 OpenBabel09152019553D

 25 28  0  0  1  0  0  0  0  0999 V2000
   94.6170   77.1240  -46.0520 C   0  0  0  0  0  0  0  0  0  0  0  0
   92.2410   81.0180  -48.5450 S   0  0  0  0  0  0  0  0  0  0  0  0
   94.3600   76.3890  -47.2640 C   0  0  0  0  0  0  0  0  0  0  0  0
   91.8650   82.0740  -50.8890 N   0  0  0  0  0  0  0  0  0  0  0  0
   94.1630   77.0890  -48.5100 C   0  0  0  0  0  0  0  0  0  0  0  0
   90.5810   83.0760  -49.1280 N   0  0  0  0  0  0  0  0  0  0  0  0
   94.6080   78.7620  -50.8850 O   0  0  0  0  0  0  0  0  0  0  0  0
   94.4910   79.2960  -47.3520 C   0  0  0  0  0  0  0  0  0  0  0  0
   93.2810   80.7850  -52.3010 N   0  0  0  0  0  0  0  0  0  0  0  0
   94.6870   78.6160  -46.0970 C   0  0  0  0  0  0  0  0  0  0  0  0
   94.8060   76.4420  -44.7880 C   0  0  0  0  0  0  0  0  0  0  0  0
   95.0590   77.2070  -43.5860 C   0  0  0  0  0  0  0  0  0  0  0  0
   95.1290   78.6510  -43.6280 C   0  0  0  0  0  0  0  0  0  0  0  0
   94.9460   79.3590  -44.8750 C   0  0  0  0  0  0  0  0  0  0  0  0
   94.2200   78.5460  -48.5900 C   0  0  0  0  0  0  0  0  0  0  0  0
   94.0010   79.2080  -49.7530 C   0  0  0  0  0  0  0  0  0  0  0  0
   93.0700   80.3800  -49.8980 C   0  0  0  0  0  0  0  0  0  0  0  0
   92.7630   81.0710  -51.0710 C   0  0  2  0  0  0  0  0  0  0  0  0
   91.4960   82.1530  -49.5780 C   0  0  0  0  0  0  0  0  0  0  0  0
   89.9970   82.9140  -47.7880 C   0  0  0  0  0  0  0  0  0  0  0  0
   88.9240   81.7720  -47.7610 C   0  0  0  0  0  0  0  0  0  0  0  0
   88.3210   81.6020  -46.3440 C   0  0  0  0  0  0  0  0  0  0  0  0
   87.7250   82.9360  -45.8250 C   0  0  0  0  0  0  0  0  0  0  0  0
   88.7400   84.1050  -45.9040 C   0  0  0  0  0  0  0  0  0  0  0  0
   89.3600   84.2490  -47.3170 C   0  0  0  0  0  0  0  0  0  0  0  0
  1 11  1  0  0  0  0
  3  1  1  0  0  0  0
  4 19  2  0  0  0  0
  5  3  2  0  0  0  0
  6 20  1  0  0  0  0
  7 16  1  0  0  0  0
  8 10  1  0  0  0  0
 10  1  2  0  0  0  0
 10 14  1  0  0  0  0
 11 12  2  0  0  0  0
 13 12  1  0  0  0  0
 14 13  2  0  0  0  0
 15  5  1  0  0  0  0
 15  8  2  0  0  0  0
 16 15  1  0  0  0  0
 17 16  2  0  0  0  0
 17  2  1  0  0  0  0
 18  9  1  6  0  0  0
 18  4  1  0  0  0  0
 18 17  1  0  0  0  0
 19  6  1  0  0  0  0
 19  2  1  0  0  0  0
 20 21  1  0  0  0  0
 20 25  1  0  0  0  0
 21 22  1  0  0  0  0
 22 23  1  0  0  0  0
 24 23  1  0  0  0  0
 25 24  1  0  0  0  0
M  END
