results/cdk2///ligands/3RAK.A.03Z_497_A.lig
 OpenBabel09152019553D

 25 27  0  0  1  0  0  0  0  0999 V2000
   96.1980   76.8310  -46.7750 C   0  0  0  0  0  0  0  0  0  0  0  0
   92.2740   81.7580  -50.8000 N   0  0  0  0  0  0  0  0  0  0  0  0
   86.2390   80.4640  -44.9080 O   0  0  0  0  0  0  0  0  0  0  0  0
   92.9750   80.4930  -48.6640 S   0  0  0  0  0  0  0  0  0  0  0  0
   97.1760   77.6060  -47.5250 C   0  0  0  0  0  0  0  0  0  0  0  0
   93.8050   80.9550  -52.3990 N   0  0  0  0  0  0  0  0  0  0  0  0
   86.8720   82.8280  -43.8860 O   0  0  0  0  0  0  0  0  0  0  0  0
   87.4250   81.4030  -44.3890 S   0  0  0  0  0  0  0  0  0  0  0  0
   96.7780   78.4020  -48.6470 C   0  0  0  0  0  0  0  0  0  0  0  0
   90.9190   82.3440  -48.9990 N   0  0  0  0  0  0  0  0  0  0  0  0
   95.5740   79.1170  -51.3980 O   0  0  0  0  0  0  0  0  0  0  0  0
   94.3860   77.6580  -48.2990 C   0  0  0  0  0  0  0  0  0  0  0  0
   88.1810   80.6700  -43.2350 N   0  0  0  0  0  0  0  0  0  0  0  0
   94.7780   76.8600  -47.1730 C   0  0  0  0  0  0  0  0  0  0  0  0
   95.3800   78.4450  -49.0520 C   0  0  0  0  0  0  0  0  0  0  0  0
   94.9520   79.2580  -50.2160 C   0  0  0  0  0  0  0  0  0  0  0  0
   93.8150   80.2220  -50.1130 C   0  0  0  0  0  0  0  0  0  0  0  0
   93.3200   80.9790  -51.1420 C   0  0  2  0  0  0  0  0  0  0  0  0
   91.9660   81.6150  -49.5100 C   0  0  0  0  0  0  0  0  0  0  0  0
   90.1340   82.0800  -47.8970 C   0  0  0  0  0  0  0  0  0  0  0  0
   90.2920   80.8920  -47.0290 C   0  0  0  0  0  0  0  0  0  0  0  0
   89.4470   80.6750  -45.9200 C   0  0  0  0  0  0  0  0  0  0  0  0
   88.4100   81.6330  -45.6280 C   0  0  0  0  0  0  0  0  0  0  0  0
   88.2420   82.8120  -46.4680 C   0  0  0  0  0  0  0  0  0  0  0  0
   89.0820   83.0350  -47.5790 C   0  0  0  0  0  0  0  0  0  0  0  0
  2 19  2  0  0  0  0
  3  8  2  0  0  0  0
  5  1  2  0  0  0  0
  8  7  2  0  0  0  0
  8 13  1  0  0  0  0
  9  5  1  0  0  0  0
 10 20  1  0  0  0  0
 11 16  1  0  0  0  0
 12 14  2  0  0  0  0
 14  1  1  0  0  0  0
 15  9  2  0  0  0  0
 15 12  1  0  0  0  0
 16 17  2  0  0  0  0
 16 15  1  0  0  0  0
 17  4  1  0  0  0  0
 18  6  1  6  0  0  0
 18  2  1  0  0  0  0
 18 17  1  0  0  0  0
 19 10  1  0  0  0  0
 19  4  1  0  0  0  0
 20 25  2  0  0  0  0
 20 21  1  0  0  0  0
 21 22  2  0  0  0  0
 22 23  1  0  0  0  0
 23  8  1  0  0  0  0
 24 23  2  0  0  0  0
 25 24  1  0  0  0  0
M  END
