results/cdk2///ligands/3RM7.A.19Z_654_A.lig
 OpenBabel09152019543D

 21 22  0  0  0  0  0  0  0  0999 V2000
  -63.9220  -46.1280  -48.2900 N   0  0  0  0  0  0  0  0  0  0  0  0
  -66.8050  -45.8720  -51.2240 N   0  0  0  0  0  0  0  0  0  0  0  0
  -68.8660  -44.1250  -47.0200 N   0  0  0  0  0  0  0  0  0  0  0  0
  -67.4740  -45.2170  -48.5730 C   0  0  0  0  0  0  0  0  0  0  0  0
  -66.1940  -45.7450  -48.9240 C   0  0  0  0  0  0  0  0  0  0  0  0
  -65.1030  -45.6480  -47.9800 C   0  0  0  0  0  0  0  0  0  0  0  0
  -65.3480  -45.0120  -46.7030 C   0  0  0  0  0  0  0  0  0  0  0  0
  -66.6290  -44.4950  -46.3790 C   0  0  0  0  0  0  0  0  0  0  0  0
  -67.7050  -44.5920  -47.3100 C   0  0  0  0  0  0  0  0  0  0  0  0
  -66.0440  -46.3280  -50.1700 C   0  0  0  0  0  0  0  0  0  0  0  0
  -62.6850  -45.9290  -47.4700 C   0  0  0  0  0  0  0  0  0  0  0  0
  -62.5850  -46.9900  -46.4040 C   0  0  0  0  0  0  0  0  0  0  0  0
  -62.5370  -48.3710  -46.7610 C   0  0  0  0  0  0  0  0  0  0  0  0
  -62.4540  -49.3640  -45.7480 C   0  0  0  0  0  0  0  0  0  0  0  0
  -62.4190  -48.9810  -44.3790 C   0  0  0  0  0  0  0  0  0  0  0  0
  -62.4660  -47.6010  -44.0200 C   0  0  0  0  0  0  0  0  0  0  0  0
  -62.5480  -46.6080  -45.0310 C   0  0  0  0  0  0  0  0  0  0  0  0
  -65.2470  -47.2220  -50.3610 O   0  0  0  0  0  0  0  0  0  0  0  0
  -62.3430  -49.9270  -43.4180 O   0  0  0  0  0  0  0  0  0  0  0  0
  -69.8730  -44.2150  -47.8860 O   0  0  0  0  0  0  0  0  0  0  0  0
  -69.0860  -43.5440  -45.8520 O   0  0  0  0  0  0  0  0  0  0  0  0
  1  6  1  0  0  0  0
  1 11  1  0  0  0  0
  2 10  1  0  0  0  0
  3 21  2  0  0  0  0
  4  9  1  0  0  0  0
  5  4  2  0  0  0  0
  5  6  1  0  0  0  0
  6  7  2  0  0  0  0
  7  8  1  0  0  0  0
  9  3  1  0  0  0  0
  9  8  2  0  0  0  0
 10  5  1  0  0  0  0
 11 12  1  0  0  0  0
 12 17  1  0  0  0  0
 13 12  2  0  0  0  0
 13 14  1  0  0  0  0
 14 15  2  0  0  0  0
 15 16  1  0  0  0  0
 15 19  1  0  0  0  0
 17 16  2  0  0  0  0
 18 10  2  0  0  0  0
 20  3  2  0  0  0  0
M  END
