results/cdk2///ligands/3RMF.A.20Z_496_A.lig
 OpenBabel09152019553D

 29 32  0  0  1  0  0  0  0  0999 V2000
   92.3330   81.9310  -51.0810 N   0  0  0  0  0  0  0  0  0  0  0  0
   91.1190   82.5390  -49.2630 N   0  0  0  0  0  0  0  0  0  0  0  0
   93.8170   81.0600  -52.6350 N   0  0  0  0  0  0  0  0  0  0  0  0
   88.3440   80.8850  -43.3450 N   0  0  0  0  0  0  0  0  0  0  0  0
   94.0050   80.4030  -50.3860 C   0  0  1  0  0  0  0  0  0  0  0  0
   93.4110   81.1250  -51.4310 C   0  0  0  0  0  0  0  0  0  0  0  0
   92.0940   81.8390  -49.7920 C   0  0  0  0  0  0  0  0  0  0  0  0
   90.3810   82.3010  -48.2160 C   0  0  0  0  0  0  0  0  0  0  0  0
   95.1050   79.5260  -50.4940 C   0  0  0  0  0  0  0  0  0  0  0  0
   95.6260   78.8680  -49.3830 C   0  0  0  0  0  0  0  0  0  0  0  0
   97.0330   78.9310  -49.1190 C   0  0  0  0  0  0  0  0  0  0  0  0
   97.5860   78.2770  -47.9830 C   0  0  0  0  0  0  0  0  0  0  0  0
   96.7540   77.5440  -47.0780 C   0  0  0  0  0  0  0  0  0  0  0  0
   95.3230   77.4670  -47.3340 C   0  0  0  0  0  0  0  0  0  0  0  0
   94.7820   78.1280  -48.4840 C   0  0  0  0  0  0  0  0  0  0  0  0
   89.3060   83.2070  -47.9660 C   0  0  0  0  0  0  0  0  0  0  0  0
   88.4520   83.0260  -46.8570 C   0  0  0  0  0  0  0  0  0  0  0  0
   88.6540   81.9350  -45.9700 C   0  0  0  0  0  0  0  0  0  0  0  0
   89.7210   81.0190  -46.1950 C   0  0  0  0  0  0  0  0  0  0  0  0
   90.5810   81.1970  -47.3070 C   0  0  0  0  0  0  0  0  0  0  0  0
   97.2920   76.8860  -45.9240 C   0  0  0  0  0  0  0  0  0  0  0  0
   96.4420   76.1640  -45.0350 C   0  0  0  0  0  0  0  0  0  0  0  0
   95.0460   76.0880  -45.2880 C   0  0  0  0  0  0  0  0  0  0  0  0
   94.4900   76.7350  -46.4290 C   0  0  0  0  0  0  0  0  0  0  0  0
   95.6420   79.3590  -51.5800 O   0  0  0  0  0  0  0  0  0  0  0  0
   86.4360   80.9060  -45.0360 O   0  0  0  0  0  0  0  0  0  0  0  0
   87.0760   82.9980  -44.1050 O   0  0  0  0  0  0  0  0  0  0  0  0
   93.1570   80.7740  -48.9260 S   0  0  0  0  0  0  0  0  0  0  0  0
   87.5530   81.7090  -44.5850 S   0  0  0  0  0  0  0  0  0  0  0  0
  1  7  2  0  0  0  0
  2  8  1  0  0  0  0
  3  6  2  0  0  0  0
  5  9  1  1  0  0  0
  5 28  1  0  0  0  0
  6  1  1  0  0  0  0
  6  5  1  0  0  0  0
  7  2  1  0  0  0  0
  7 28  1  0  0  0  0
  8 16  2  0  0  0  0
  8 20  1  0  0  0  0
  9 10  1  0  0  0  0
 10 11  2  0  0  0  0
 10 15  1  0  0  0  0
 11 12  1  0  0  0  0
 12 13  2  0  0  0  0
 13 21  1  0  0  0  0
 14 13  1  0  0  0  0
 14 24  1  0  0  0  0
 15 14  2  0  0  0  0
 16 17  1  0  0  0  0
 17 18  2  0  0  0  0
 18 29  1  0  0  0  0
 19 18  1  0  0  0  0
 20 19  2  0  0  0  0
 21 22  2  0  0  0  0
 23 22  1  0  0  0  0
 24 23  2  0  0  0  0
 25  9  2  0  0  0  0
 26 29  2  0  0  0  0
 29 27  2  0  0  0  0
 29  4  1  0  0  0  0
M  END
