results/cdk2///ligands/3ROY.A.22Z_781_A.lig
 OpenBabel09152019553D

 27 28  0  0  0  0  0  0  0  0999 V2000
  -64.2620  -10.1780   24.0660 N   0  0  0  0  0  0  0  0  0  0  0  0
  -66.9390   -9.8370   20.9520 N   0  0  0  0  0  0  0  0  0  0  0  0
  -62.6950  -13.2900   26.5530 N   0  0  0  0  0  0  0  0  0  0  0  0
  -67.3630   -8.0710   26.9780 N   0  0  0  0  0  0  0  0  0  0  0  0
  -69.2770   -8.1720   25.0040 N   0  0  0  0  0  0  0  0  0  0  0  0
  -67.7710   -9.2180   23.5530 C   0  0  0  0  0  0  0  0  0  0  0  0
  -66.4730   -9.7470   23.2860 C   0  0  0  0  0  0  0  0  0  0  0  0
  -65.4540   -9.6950   24.3100 C   0  0  0  0  0  0  0  0  0  0  0  0
  -65.7870   -9.1080   25.5880 C   0  0  0  0  0  0  0  0  0  0  0  0
  -67.0950   -8.5860   25.8370 C   0  0  0  0  0  0  0  0  0  0  0  0
  -68.0970   -8.6390   24.8110 C   0  0  0  0  0  0  0  0  0  0  0  0
  -66.2350  -10.2930   22.0390 C   0  0  0  0  0  0  0  0  0  0  0  0
  -63.0400   -9.8740   24.8610 C   0  0  0  0  0  0  0  0  0  0  0  0
  -62.8330  -10.9240   25.9200 C   0  0  0  0  0  0  0  0  0  0  0  0
  -62.8740  -12.3010   25.6100 C   0  0  0  0  0  0  0  0  0  0  0  0
  -62.4650  -12.8990   27.8580 C   0  0  0  0  0  0  0  0  0  0  0  0
  -62.4070  -11.5510   28.2620 C   0  0  0  0  0  0  0  0  0  0  0  0
  -62.5960  -10.5540   27.2720 C   0  0  0  0  0  0  0  0  0  0  0  0
  -67.8400   -8.9120   28.0910 C   0  0  0  0  0  0  0  0  0  0  0  0
  -67.1390   -8.4930   29.3880 C   0  0  0  0  0  0  0  0  0  0  0  0
  -65.6870   -8.9780   29.3740 C   0  0  0  0  0  0  0  0  0  0  0  0
  -64.9420   -8.4010   30.5680 C   0  0  0  0  0  0  0  0  0  0  0  0
  -63.8110   -9.3420   30.9710 C   0  0  0  0  0  0  0  0  0  0  0  0
  -63.6380   -9.3040   32.4860 C   0  0  0  0  0  0  0  0  0  0  0  0
  -65.4190  -11.1760   21.8870 O   0  0  0  0  0  0  0  0  0  0  0  0
  -69.4570   -7.0970   25.7480 O   0  0  0  0  0  0  0  0  0  0  0  0
  -70.3300   -8.7340   24.4410 O   0  0  0  0  0  0  0  0  0  0  0  0
  1  8  1  0  0  0  0
  1 13  1  0  0  0  0
  2 12  1  0  0  0  0
  3 16  1  0  0  0  0
  4 19  1  0  0  0  0
  5 26  2  0  0  0  0
  6 11  1  0  0  0  0
  7  6  2  0  0  0  0
  7  8  1  0  0  0  0
  8  9  2  0  0  0  0
  9 10  1  0  0  0  0
 10  4  1  0  0  0  0
 11  5  1  0  0  0  0
 11 10  2  0  0  0  0
 12  7  1  0  0  0  0
 13 14  1  0  0  0  0
 14 18  2  0  0  0  0
 15 14  1  0  0  0  0
 15  3  2  0  0  0  0
 16 17  2  0  0  0  0
 18 17  1  0  0  0  0
 19 20  1  0  0  0  0
 21 20  1  0  0  0  0
 21 22  1  0  0  0  0
 22 23  1  0  0  0  0
 23 24  1  0  0  0  0
 25 12  2  0  0  0  0
 27  5  2  0  0  0  0
M  END
