results/cdk2///ligands/3RPR.A.25Z_529_A.lig
 OpenBabel09152019553D

 25 27  0  0  1  0  0  0  0  0999 V2000
   94.6830   76.9970  -46.1040 C   0  0  0  0  0  0  0  0  0  0  0  0
   94.3210   80.5000  -44.9690 F   0  0  0  0  0  0  0  0  0  0  0  0
   91.7310   81.8290  -51.1100 N   0  0  0  0  0  0  0  0  0  0  0  0
   94.6530   78.6890  -50.9240 O   0  0  0  0  0  0  0  0  0  0  0  0
   91.9550   80.7390  -48.7840 S   0  0  0  0  0  0  0  0  0  0  0  0
   94.5210   78.4510  -46.0640 C   0  0  0  0  0  0  0  0  0  0  0  0
   95.8610   79.0400  -44.2760 F   0  0  0  0  0  0  0  0  0  0  0  0
   90.2250   82.6940  -49.5230 N   0  0  0  0  0  0  0  0  0  0  0  0
   94.2870   79.1340  -47.3360 C   0  0  0  0  0  0  0  0  0  0  0  0
   93.6900   78.6190  -43.9010 F   0  0  0  0  0  0  0  0  0  0  0  0
   93.3680   80.6960  -52.4050 N   0  0  0  0  0  0  0  0  0  0  0  0
   94.2100   78.4180  -48.6160 C   0  0  0  0  0  0  0  0  0  0  0  0
   94.3830   76.9580  -48.5820 C   0  0  0  0  0  0  0  0  0  0  0  0
   94.6150   76.2680  -47.3420 C   0  0  0  0  0  0  0  0  0  0  0  0
   94.5970   79.1460  -44.8120 C   0  0  0  0  0  0  0  0  0  0  0  0
   93.9820   79.0870  -49.8260 C   0  0  0  0  0  0  0  0  0  0  0  0
   92.9660   80.2040  -50.0400 C   0  0  0  0  0  0  0  0  0  0  0  0
   91.2210   81.8540  -49.8470 C   0  0  0  0  0  0  0  0  0  0  0  0
   92.7160   80.9050  -51.2260 C   0  0  2  0  0  0  0  0  0  0  0  0
   89.4160   82.7100  -48.3620 C   0  0  0  0  0  0  0  0  0  0  0  0
   89.0970   81.5380  -47.5090 C   0  0  0  0  0  0  0  0  0  0  0  0
   88.2600   81.6700  -46.3380 C   0  0  0  0  0  0  0  0  0  0  0  0
   87.7230   82.9580  -45.9880 C   0  0  0  0  0  0  0  0  0  0  0  0
   88.0120   84.1100  -46.7970 C   0  0  0  0  0  0  0  0  0  0  0  0
   88.8480   83.9870  -47.9670 C   0  0  0  0  0  0  0  0  0  0  0  0
  1  6  1  0  0  0  0
  2 15  1  0  0  0  0
  3 18  2  0  0  0  0
  4 16  1  0  0  0  0
  6 15  1  0  0  0  0
  8 20  1  0  0  0  0
  9  6  2  0  0  0  0
 12 13  2  0  0  0  0
 12  9  1  0  0  0  0
 13 14  1  0  0  0  0
 14  1  2  0  0  0  0
 15  7  1  0  0  0  0
 15 10  1  0  0  0  0
 16 12  1  0  0  0  0
 17 16  2  0  0  0  0
 17  5  1  0  0  0  0
 18  8  1  0  0  0  0
 18  5  1  0  0  0  0
 19 11  1  6  0  0  0
 19  3  1  0  0  0  0
 19 17  1  0  0  0  0
 20 25  2  0  0  0  0
 20 21  1  0  0  0  0
 21 22  2  0  0  0  0
 22 23  1  0  0  0  0
 24 23  2  0  0  0  0
 25 24  1  0  0  0  0
M  END
