results/cdk2///ligands/3RPV.A.26Z_495_A.lig
 OpenBabel09152019553D

 26 28  0  0  1  0  0  0  0  0999 V2000
   65.3520  117.6420  -86.8150 N   0  0  0  0  0  0  0  0  0  0  0  0
   64.1000  118.2300  -85.0070 N   0  0  0  0  0  0  0  0  0  0  0  0
   66.8850  116.7830  -88.3510 N   0  0  0  0  0  0  0  0  0  0  0  0
   67.3660  112.3040  -82.4470 N   0  0  0  0  0  0  0  0  0  0  0  0
   61.4110  116.4060  -79.1560 N   0  0  0  0  0  0  0  0  0  0  0  0
   67.0380  116.1290  -86.1100 C   0  0  1  0  0  0  0  0  0  0  0  0
   66.4540  116.8430  -87.1550 C   0  0  0  0  0  0  0  0  0  0  0  0
   65.0930  117.5450  -85.5330 C   0  0  0  0  0  0  0  0  0  0  0  0
   63.3670  117.9620  -83.9610 C   0  0  0  0  0  0  0  0  0  0  0  0
   68.1490  115.2670  -86.2190 C   0  0  0  0  0  0  0  0  0  0  0  0
   68.5960  114.4770  -85.1430 C   0  0  0  0  0  0  0  0  0  0  0  0
   69.9920  114.3980  -84.8660 C   0  0  0  0  0  0  0  0  0  0  0  0
   70.4700  113.6150  -83.7810 C   0  0  0  0  0  0  0  0  0  0  0  0
   69.5670  112.8970  -82.9510 C   0  0  0  0  0  0  0  0  0  0  0  0
   68.1760  112.9550  -83.2050 C   0  0  0  0  0  0  0  0  0  0  0  0
   67.6830  113.7430  -84.3010 C   0  0  0  0  0  0  0  0  0  0  0  0
   63.5090  116.7830  -83.1570 C   0  0  0  0  0  0  0  0  0  0  0  0
   62.6600  116.5720  -82.0470 C   0  0  0  0  0  0  0  0  0  0  0  0
   61.6660  117.5320  -81.7310 C   0  0  0  0  0  0  0  0  0  0  0  0
   61.5180  118.7020  -82.5140 C   0  0  0  0  0  0  0  0  0  0  0  0
   62.3550  118.9140  -83.6130 C   0  0  0  0  0  0  0  0  0  0  0  0
   68.7600  115.2090  -87.2890 O   0  0  0  0  0  0  0  0  0  0  0  0
   59.4980  116.4510  -80.8600 O   0  0  0  0  0  0  0  0  0  0  0  0
   60.0780  118.5260  -79.8530 O   0  0  0  0  0  0  0  0  0  0  0  0
   66.1500  116.4970  -84.6640 S   0  0  0  0  0  0  0  0  0  0  0  0
   60.5900  117.2570  -80.3620 S   0  0  0  0  0  0  0  0  0  0  0  0
  1  8  2  0  0  0  0
  2  9  1  0  0  0  0
  3  7  2  0  0  0  0
  6 10  1  1  0  0  0
  6 25  1  0  0  0  0
  7  1  1  0  0  0  0
  7  6  1  0  0  0  0
  8  2  1  0  0  0  0
  8 25  1  0  0  0  0
  9 21  2  0  0  0  0
  9 17  1  0  0  0  0
 10 11  1  0  0  0  0
 11 12  2  0  0  0  0
 11 16  1  0  0  0  0
 12 13  1  0  0  0  0
 13 14  2  0  0  0  0
 15 14  1  0  0  0  0
 15  4  1  0  0  0  0
 16 15  2  0  0  0  0
 17 18  2  0  0  0  0
 18 19  1  0  0  0  0
 19 26  1  0  0  0  0
 20 19  2  0  0  0  0
 21 20  1  0  0  0  0
 22 10  2  0  0  0  0
 23 26  2  0  0  0  0
 26 24  2  0  0  0  0
 26  5  1  0  0  0  0
M  END
