results/cdk2///ligands/3S0O.A.50Z_446_A.lig
 OpenBabel09152019553D

 18 19  0  0  1  0  0  0  0  0999 V2000
   64.7940   82.1740  -86.5730 N   0  0  0  0  0  0  0  0  0  0  0  0
   65.7490   81.2390  -86.7490 C   0  0  0  0  0  0  0  0  0  0  0  0
   66.2670   81.0190  -87.9780 N   0  0  0  0  0  0  0  0  0  0  0  0
   66.1090   80.5560  -85.5720 C   0  0  0  0  0  0  0  0  0  0  0  0
   67.0340   79.5400  -85.4400 C   0  0  1  0  0  0  0  0  0  0  0  0
   67.3180   78.8690  -84.1220 C   0  0  0  0  0  0  0  0  0  0  0  0
   67.2980   78.8590  -81.6430 C   0  0  0  0  0  0  0  0  0  0  0  0
   67.0320   79.5100  -82.8810 N   0  0  0  0  0  0  0  0  0  0  0  0
   67.8400   77.5910  -81.6420 C   0  0  0  0  0  0  0  0  0  0  0  0
   68.1300   76.9390  -82.8210 C   0  0  0  0  0  0  0  0  0  0  0  0
   67.8780   77.5560  -84.0810 C   0  0  0  0  0  0  0  0  0  0  0  0
   67.7150   79.0830  -86.5260 O   0  0  0  0  0  0  0  0  0  0  0  0
   65.2050   81.1460  -84.2320 S   0  0  0  0  0  0  0  0  0  0  0  0
   64.4020   82.2390  -85.2830 C   0  0  0  0  0  0  0  0  0  0  0  0
   63.4270   83.1240  -84.8800 N   0  0  0  0  0  0  0  0  0  0  0  0
   62.9760   83.1960  -83.4950 C   0  0  0  0  0  0  0  0  0  0  0  0
   62.0210   82.0700  -83.1600 C   0  0  0  0  0  0  0  0  0  0  0  0
   62.3170   81.1180  -82.0710 C   0  0  0  0  0  0  0  0  0  0  0  0
  1 14  2  0  0  0  0
  2  1  1  0  0  0  0
  2  4  2  0  0  0  0
  3  2  1  0  0  0  0
  4  5  1  0  0  0  0
  4 13  1  0  0  0  0
  5 12  1  6  0  0  0
  5  6  1  0  0  0  0
  6 11  2  0  0  0  0
  6  8  1  0  0  0  0
  7  9  1  0  0  0  0
  8  7  2  0  0  0  0
 10  9  2  0  0  0  0
 11 10  1  0  0  0  0
 14 15  1  0  0  0  0
 14 13  1  0  0  0  0
 15 16  1  0  0  0  0
 16 17  1  0  0  0  0
 17 18  1  0  0  0  0
M  END
