results/cdk2///ligands/3S1H.A.56Z_479_A.lig
 OpenBabel09152019553D

 27 29  0  0  1  0  0  0  0  0999 V2000
   96.2020   77.2120  -47.0020 C   0  0  0  0  0  0  0  0  0  0  0  0
   92.2610   81.9090  -51.3390 N   0  0  0  0  0  0  0  0  0  0  0  0
   86.2250   80.8410  -45.4210 O   0  0  0  0  0  0  0  0  0  0  0  0
   92.9860   80.7360  -49.1500 S   0  0  0  0  0  0  0  0  0  0  0  0
   97.2400   77.9420  -47.7770 C   0  0  0  0  0  0  0  0  0  0  0  0
   93.7920   81.0630  -52.9230 N   0  0  0  0  0  0  0  0  0  0  0  0
   86.9220   83.1470  -44.3330 O   0  0  0  0  0  0  0  0  0  0  0  0
   87.4330   81.7170  -44.8730 S   0  0  0  0  0  0  0  0  0  0  0  0
   96.8790   78.6870  -48.9880 C   0  0  0  0  0  0  0  0  0  0  0  0
   90.9060   82.5510  -49.5490 N   0  0  0  0  0  0  0  0  0  0  0  0
   95.6300   79.2820  -51.8560 O   0  0  0  0  0  0  0  0  0  0  0  0
   94.4470   77.9660  -48.6570 C   0  0  0  0  0  0  0  0  0  0  0  0
   88.1570   80.9180  -43.7310 N   0  0  0  0  0  0  0  0  0  0  0  0
   94.7880   77.2320  -47.4650 C   0  0  0  0  0  0  0  0  0  0  0  0
   96.5340   76.5090  -45.8450 O   0  0  0  0  0  0  0  0  0  0  0  0
   95.6740   75.8150  -45.0650 C   0  0  0  0  0  0  0  0  0  0  0  0
   95.4640   78.7110  -49.4420 C   0  0  0  0  0  0  0  0  0  0  0  0
   95.0130   79.4550  -50.6680 C   0  0  0  0  0  0  0  0  0  0  0  0
   93.8380   80.4130  -50.5990 C   0  0  0  0  0  0  0  0  0  0  0  0
   93.3150   81.1280  -51.6600 C   0  0  2  0  0  0  0  0  0  0  0  0
   91.9600   81.8150  -50.0460 C   0  0  0  0  0  0  0  0  0  0  0  0
   90.1390   82.3120  -48.4360 C   0  0  0  0  0  0  0  0  0  0  0  0
   90.3240   81.1300  -47.5020 C   0  0  0  0  0  0  0  0  0  0  0  0
   89.4840   80.9440  -46.3810 C   0  0  0  0  0  0  0  0  0  0  0  0
   88.4150   81.9190  -46.1240 C   0  0  0  0  0  0  0  0  0  0  0  0
   88.2260   83.0740  -47.0150 C   0  0  0  0  0  0  0  0  0  0  0  0
   89.0670   83.2720  -48.1470 C   0  0  0  0  0  0  0  0  0  0  0  0
  1 15  1  0  0  0  0
  2 21  2  0  0  0  0
  3  8  2  0  0  0  0
  5  1  2  0  0  0  0
  8  7  2  0  0  0  0
  8 13  1  0  0  0  0
  9  5  1  0  0  0  0
 10 22  1  0  0  0  0
 11 18  1  0  0  0  0
 12 14  2  0  0  0  0
 14  1  1  0  0  0  0
 15 16  1  0  0  0  0
 17  9  2  0  0  0  0
 17 12  1  0  0  0  0
 18 19  2  0  0  0  0
 18 17  1  0  0  0  0
 19  4  1  0  0  0  0
 20  6  1  6  0  0  0
 20  2  1  0  0  0  0
 20 19  1  0  0  0  0
 21 10  1  0  0  0  0
 21  4  1  0  0  0  0
 22 27  2  0  0  0  0
 22 23  1  0  0  0  0
 23 24  2  0  0  0  0
 24 25  1  0  0  0  0
 25  8  1  0  0  0  0
 26 25  2  0  0  0  0
 27 26  1  0  0  0  0
M  END
