test/ricin//ligands/1IL3.A.7DG_301_A.lig
 OpenBabel09152012293D

 11 12  0  0  1  0  0  0  0  0999 V2000
   -1.0790    0.5580    7.8420 N   0  0  0  0  0  0  0  0  0  0  0  0
   -1.6900    0.9590    6.7110 C   0  0  0  0  0  0  0  0  0  0  0  0
   -0.7530    1.4910    5.8210 C   0  0  0  0  0  0  0  0  0  0  0  0
    0.4780    1.3890    6.4690 C   0  0  1  0  0  0  0  0  0  0  0  0
    1.7920    1.7360    6.1280 C   0  0  0  0  0  0  0  0  0  0  0  0
    2.0990    2.2520    5.0770 O   0  0  0  0  0  0  0  0  0  0  0  0
    2.7650    1.4720    7.0390 N   0  0  0  0  0  0  0  0  0  0  0  0
    2.4990    0.8970    8.2450 C   0  0  0  0  0  0  0  0  0  0  0  0
    3.4650    0.6360    9.1430 N   0  0  0  0  0  0  0  0  0  0  0  0
    1.2360    0.5640    8.5950 N   0  0  0  0  0  0  0  0  0  0  0  0
    0.2360    0.8060    7.7150 C   0  0  0  0  0  0  0  0  0  0  0  0
  2  1  1  0  0  0  0
  3  2  2  0  0  0  0
  4  3  1  1  0  0  0
  4 11  1  0  0  0  0
  5  4  1  0  0  0  0
  5  7  1  0  0  0  0
  6  5  2  0  0  0  0
  7  8  2  0  0  0  0
  8 10  1  0  0  0  0
  8  9  1  0  0  0  0
 11  1  2  0  0  0  0
 11 10  1  0  0  0  0
M  END
