test/ricin//ligands/1J1M.A.TRE_305_A.lig
 OpenBabel09152012293D

 23 24  0  0  1  0  0  0  0  0999 V2000
   73.6010  -35.6160   86.9570 C   0  0  1  0  0  0  0  0  0  0  0  0
   74.1650  -35.0120   88.2750 C   0  0  1  0  0  0  0  0  0  0  0  0
   73.6330  -35.8670   89.4620 C   0  0  2  0  0  0  0  0  0  0  0  0
   72.0900  -35.7140   89.4390 C   0  0  1  0  0  0  0  0  0  0  0  0
   71.5300  -36.2980   88.0970 C   0  0  1  0  0  0  0  0  0  0  0  0
   70.0400  -36.2050   87.9220 C   0  0  0  0  0  0  0  0  0  0  0  0
   74.1370  -36.8970   86.8230 O   0  0  0  0  0  0  0  0  0  0  0  0
   75.5510  -35.0680   88.2080 O   0  0  0  0  0  0  0  0  0  0  0  0
   74.1290  -35.3480   90.6510 O   0  0  0  0  0  0  0  0  0  0  0  0
   71.4890  -36.4340   90.4590 O   0  0  0  0  0  0  0  0  0  0  0  0
   72.1160  -35.6250   86.9580 O   0  0  0  0  0  0  0  0  0  0  0  0
   69.7040  -36.7720   86.6660 O   0  0  0  0  0  0  0  0  0  0  0  0
   73.8070  -37.7410   85.7070 C   0  0  2  0  0  0  0  0  0  0  0  0
   73.8960  -39.2230   85.3200 C   0  0  1  0  0  0  0  0  0  0  0  0
   75.4550  -39.5550   85.2680 C   0  0  2  0  0  0  0  0  0  0  0  0
   76.0190  -38.7290   84.0920 C   0  0  1  0  0  0  0  0  0  0  0  0
   75.8260  -37.1790   84.3960 C   0  0  1  0  0  0  0  0  0  0  0  0
   76.3400  -36.3080   83.2450 C   0  0  0  0  0  0  0  0  0  0  0  0
   73.3360  -39.9320   86.3600 O   0  0  0  0  0  0  0  0  0  0  0  0
   75.6430  -40.8910   84.9500 O   0  0  0  0  0  0  0  0  0  0  0  0
   77.4070  -38.9600   83.9350 O   0  0  0  0  0  0  0  0  0  0  0  0
   74.4060  -36.9530   84.5940 O   0  0  0  0  0  0  0  0  0  0  0  0
   75.5740  -36.5510   82.0800 O   0  0  0  0  0  0  0  0  0  0  0  0
  1  7  1  1  0  0  0
  1 11  1  0  0  0  0
  1  2  1  0  0  0  0
  2  8  1  6  0  0  0
  2  3  1  0  0  0  0
  3  9  1  1  0  0  0
  4  3  1  0  0  0  0
  4 10  1  1  0  0  0
  5  6  1  1  0  0  0
  5  4  1  0  0  0  0
 11  5  1  0  0  0  0
 12  6  1  0  0  0  0
 13  7  1  1  0  0  0
 14 13  1  0  0  0  0
 14 19  1  1  0  0  0
 15 20  1  6  0  0  0
 15 14  1  0  0  0  0
 16 21  1  1  0  0  0
 16 17  1  0  0  0  0
 16 15  1  0  0  0  0
 17 18  1  6  0  0  0
 17 22  1  0  0  0  0
 22 13  1  0  0  0  0
 23 18  1  0  0  0  0
M  END
