test/ricin//ligands/1RZO.B.GAL_5005_B.lig
 OpenBabel09152012293D

 12 12  0  0  1  0  0  0  0  0999 V2000
   24.1590   57.8110   38.6930 C   0  0  2  0  0  0  0  0  0  0  0  0
   24.6130   57.9220   40.1780 C   0  0  1  0  0  0  0  0  0  0  0  0
   23.6170   58.6400   40.8330 C   0  0  2  0  0  0  0  0  0  0  0  0
   23.3300   60.1250   40.2820 C   0  0  2  0  0  0  0  0  0  0  0  0
   23.1000   60.0240   38.7550 C   0  0  1  0  0  0  0  0  0  0  0  0
   23.1630   61.3600   38.0180 C   0  0  0  0  0  0  0  0  0  0  0  0
   25.1150   57.1040   37.9830 O   0  0  0  0  0  0  0  0  0  0  0  0
   24.7050   56.6310   40.7960 O   0  0  0  0  0  0  0  0  0  0  0  0
   23.8250   58.8730   42.3020 O   0  0  0  0  0  0  0  0  0  0  0  0
   24.4650   60.9610   40.6010 O   0  0  0  0  0  0  0  0  0  0  0  0
   24.0990   59.1560   38.1000 O   0  0  0  0  0  0  0  0  0  0  0  0
   22.9430   61.1930   36.6100 O   0  0  0  0  0  0  0  0  0  0  0  0
  1  7  1  6  0  0  0
  1  2  1  0  0  0  0
  2  8  1  1  0  0  0
  2  3  1  0  0  0  0
  3  9  1  1  0  0  0
  4 10  1  6  0  0  0
  4  3  1  0  0  0  0
  5  6  1  6  0  0  0
  5  4  1  0  0  0  0
 11  1  1  0  0  0  0
 11  5  1  0  0  0  0
 12  6  1  0  0  0  0
M  END
