test/ricin//ligands/3RTI.A.FMP_301_A.lig
 OpenBabel09152012293D

 23 25  0  0  1  0  0  0  0  0999 V2000
   25.1070   68.0050   50.0200 P   0  0  0  0  0  0  0  0  0  0  0  0
   24.2690   68.0560   48.8030 O   0  0  0  0  0  0  0  0  0  0  0  0
   26.6660   68.2540   49.7070 O   0  0  0  0  0  0  0  0  0  0  0  0
   24.6870   69.1010   51.1190 O   0  0  0  0  0  0  0  0  0  0  0  0
   25.0370   66.5830   50.7660 O   0  0  0  0  0  0  0  0  0  0  0  0
   25.9270   66.2880   51.8450 C   0  0  0  0  0  0  0  0  0  0  0  0
   25.6990   64.8620   52.3500 C   0  0  1  0  0  0  0  0  0  0  0  0
   26.5530   64.5050   53.4510 O   0  0  0  0  0  0  0  0  0  0  0  0
   24.2850   64.6900   52.8990 C   0  0  1  0  0  0  0  0  0  0  0  0
   23.3730   64.5480   51.8070 O   0  0  0  0  0  0  0  0  0  0  0  0
   24.5070   63.3370   53.5690 C   0  0  1  0  0  0  0  0  0  0  0  0
   24.7600   62.3380   52.5770 O   0  0  0  0  0  0  0  0  0  0  0  0
   25.8010   63.6440   54.3280 C   0  0  2  0  0  0  0  0  0  0  0  0
   25.5180   64.4210   55.6160 C   0  0  0  0  0  0  0  0  0  0  0  0
   26.4350   65.0370   56.3560 N   0  0  0  0  0  0  0  0  0  0  0  0
   25.9040   65.5660   57.3380 N   0  0  0  0  0  0  0  0  0  0  0  0
   23.5450   65.7390   58.1780 C   0  0  0  0  0  0  0  0  0  0  0  0
   23.7760   66.4740   59.2630 N   0  0  0  0  0  0  0  0  0  0  0  0
   24.5890   65.3580   57.3440 C   0  0  0  0  0  0  0  0  0  0  0  0
   24.2800   64.6160   56.2180 C   0  0  0  0  0  0  0  0  0  0  0  0
   23.0140   64.2670   55.9610 N   0  0  0  0  0  0  0  0  0  0  0  0
   22.0490   64.6430   56.7870 C   0  0  0  0  0  0  0  0  0  0  0  0
   22.2980   65.3730   57.8570 N   0  0  0  0  0  0  0  0  0  0  0  0
  1  5  1  0  0  0  0
  1  4  1  0  0  0  0
  2  1  2  0  0  0  0
  3  1  1  0  0  0  0
  5  6  1  0  0  0  0
  7  6  1  1  0  0  0
  7  9  1  0  0  0  0
  7  8  1  0  0  0  0
  8 13  1  0  0  0  0
  9 10  1  6  0  0  0
  9 11  1  0  0  0  0
 11 12  1  6  0  0  0
 11 13  1  0  0  0  0
 13 14  1  1  0  0  0
 14 20  2  0  0  0  0
 14 15  1  0  0  0  0
 15 16  1  0  0  0  0
 16 19  2  0  0  0  0
 17 18  1  0  0  0  0
 19 17  1  0  0  0  0
 20 19  1  0  0  0  0
 21 20  1  0  0  0  0
 21 22  2  0  0  0  0
 22 23  1  0  0  0  0
 23 17  2  0  0  0  0
M  END
