test/ricin//ligands/3RTJ.B.GAL_267_B.lig
 OpenBabel09152012293D

 11 11  0  0  1  0  0  0  0  0999 V2000
   -1.6740   34.2350   53.0500 C   0  0  0  0  0  0  0  0  0  0  0  0
   -0.6810   35.3770   52.7870 C   0  0  1  0  0  0  0  0  0  0  0  0
   -0.6250   35.7390   51.3050 C   0  0  2  0  0  0  0  0  0  0  0  0
   -0.3900   34.4900   50.4530 C   0  0  2  0  0  0  0  0  0  0  0  0
   -1.4530   33.4430   50.7900 C   0  0  1  0  0  0  0  0  0  0  0  0
   -1.2840   32.1480   50.0190 C   0  0  0  0  0  0  0  0  0  0  0  0
   -1.0620   36.5240   53.5320 O   0  0  0  0  0  0  0  0  0  0  0  0
    0.4300   36.6640   51.0910 O   0  0  0  0  0  0  0  0  0  0  0  0
    0.9070   33.9680   50.7150 O   0  0  0  0  0  0  0  0  0  0  0  0
   -1.3930   33.1130   52.1950 O   0  0  0  0  0  0  0  0  0  0  0  0
   -2.5250   31.4710   49.8890 O   0  0  0  0  0  0  0  0  0  0  0  0
  2  1  1  0  0  0  0
  2  7  1  1  0  0  0
  3  8  1  1  0  0  0
  3  2  1  0  0  0  0
  4  9  1  1  0  0  0
  4  5  1  0  0  0  0
  4  3  1  0  0  0  0
  5  6  1  6  0  0  0
  5 10  1  0  0  0  0
 10  1  1  0  0  0  0
 11  6  1  0  0  0  0
M  END
