test/ricin//ligands/4ESI.A.0RB_301_A.lig
 OpenBabel09152012293D

 21 23  0  0  0  0  0  0  0  0999 V2000
  -24.1160    8.9850   -6.5720 C   0  0  0  0  0  0  0  0  0  0  0  0
  -22.8850    9.0710   -8.5940 C   0  0  0  0  0  0  0  0  0  0  0  0
  -23.3110   10.4330   -8.8210 C   0  0  0  0  0  0  0  0  0  0  0  0
  -24.2310   10.9530   -7.8090 C   0  0  0  0  0  0  0  0  0  0  0  0
  -24.3260   12.9010   -9.0980 C   0  0  0  0  0  0  0  0  0  0  0  0
  -23.4560   12.3860  -10.0850 C   0  0  0  0  0  0  0  0  0  0  0  0
  -25.6970   14.6750   -8.3970 O   0  0  0  0  0  0  0  0  0  0  0  0
  -24.9570   14.2350   -9.2640 C   0  0  0  0  0  0  0  0  0  0  0  0
  -22.9570   11.1380   -9.9340 N   0  0  0  0  0  0  0  0  0  0  0  0
  -22.1290    8.5150   -9.4200 O   0  0  0  0  0  0  0  0  0  0  0  0
  -23.3190    8.4520   -7.4930 N   0  0  0  0  0  0  0  0  0  0  0  0
  -24.6600   12.2030   -8.0060 N   0  0  0  0  0  0  0  0  0  0  0  0
  -24.5480   10.2350   -6.7200 N   0  0  0  0  0  0  0  0  0  0  0  0
  -24.4630    8.2060   -5.4990 N   0  0  0  0  0  0  0  0  0  0  0  0
  -24.8400   14.7770  -10.4830 N   0  0  0  0  0  0  0  0  0  0  0  0
  -25.6200   15.8770  -10.9930 C   0  0  0  0  0  0  0  0  0  0  0  0
  -27.0850   15.5690  -11.1140 C   0  0  0  0  0  0  0  0  0  0  0  0
  -27.7140   14.3900  -10.8330 N   0  0  0  0  0  0  0  0  0  0  0  0
  -29.0810   14.5700  -11.0530 N   0  0  0  0  0  0  0  0  0  0  0  0
  -29.2510   15.8980  -11.4540 N   0  0  0  0  0  0  0  0  0  0  0  0
  -28.0450   16.4970  -11.4900 C   0  0  0  0  0  0  0  0  0  0  0  0
  1 14  1  0  0  0  0
  2 11  1  0  0  0  0
  3  2  1  0  0  0  0
  3  4  1  0  0  0  0
  4 13  1  0  0  0  0
  5 12  1  0  0  0  0
  6  9  1  0  0  0  0
  6  5  2  0  0  0  0
  8  5  1  0  0  0  0
  8  7  2  0  0  0  0
  9  3  2  0  0  0  0
 10  2  2  0  0  0  0
 11  1  2  0  0  0  0
 12  4  2  0  0  0  0
 13  1  1  0  0  0  0
 15  8  1  0  0  0  0
 16 15  1  0  0  0  0
 17 16  1  0  0  0  0
 17 18  1  0  0  0  0
 19 18  1  0  0  0  0
 20 19  2  0  0  0  0
 21 20  1  0  0  0  0
 21 17  2  0  0  0  0
M  END
