test/ricin//ligands/4HUP.X.MLA_304_X.lig
 OpenBabel09152012293D

  7  6  0  0  0  0  0  0  0  0999 V2000
   -1.7320   15.3640    1.6210 C   0  0  0  0  0  0  0  0  0  0  0  0
   -1.4180   16.6350    1.3480 O   0  0  0  0  0  0  0  0  0  0  0  0
   -2.7820   14.9040    1.2040 O   0  0  0  0  0  0  0  0  0  0  0  0
   -0.8190   14.4810    2.4390 C   0  0  0  0  0  0  0  0  0  0  0  0
   -1.7020   13.6100    3.3100 C   0  0  0  0  0  0  0  0  0  0  0  0
   -1.6640   12.2780    3.2610 O   0  0  0  0  0  0  0  0  0  0  0  0
   -2.4840   14.1360    4.0790 O   0  0  0  0  0  0  0  0  0  0  0  0
  1  4  1  0  0  0  0
  2  1  1  0  0  0  0
  3  1  2  0  0  0  0
  4  5  1  0  0  0  0
  5  7  1  0  0  0  0
  6  5  2  0  0  0  0
M  END
