test/ricin//ligands/4HUP.X.MLA_305_X.lig
 OpenBabel09152012293D

  7  6  0  0  0  0  0  0  0  0999 V2000
  -29.7480   15.8350  -19.2110 C   0  0  0  0  0  0  0  0  0  0  0  0
  -30.0050   16.7270  -18.2550 O   0  0  0  0  0  0  0  0  0  0  0  0
  -29.4900   14.6820  -18.8850 O   0  0  0  0  0  0  0  0  0  0  0  0
  -29.7610   16.2440  -20.6710 C   0  0  0  0  0  0  0  0  0  0  0  0
  -31.1590   16.6030  -21.1470 C   0  0  0  0  0  0  0  0  0  0  0  0
  -31.3670   17.6350  -21.7720 O   0  0  0  0  0  0  0  0  0  0  0  0
  -32.1870   15.7930  -20.9090 O   0  0  0  0  0  0  0  0  0  0  0  0
  1  3  2  0  0  0  0
  1  2  1  0  0  0  0
  4  1  1  0  0  0  0
  5  7  1  0  0  0  0
  5  4  1  0  0  0  0
  6  5  2  0  0  0  0
M  END
