test/ricin//ligands/4HV3.A.19L_301_A.lig
 OpenBabel09152012293D

 35 38  0  0  1  0  0  0  0  0999 V2000
  -23.9110    8.5960   -6.3990 C   0  0  0  0  0  0  0  0  0  0  0  0
  -24.3050    7.8790   -5.3000 N   0  0  0  0  0  0  0  0  0  0  0  0
  -21.8480    8.1820   -9.1300 O   0  0  0  0  0  0  0  0  0  0  0  0
  -22.6770    8.6610   -8.3050 C   0  0  0  0  0  0  0  0  0  0  0  0
  -23.0650    7.9420   -7.2440 N   0  0  0  0  0  0  0  0  0  0  0  0
  -23.0880    9.9870   -8.5260 C   0  0  2  0  0  0  0  0  0  0  0  0
  -24.3040    9.8540   -6.4840 N   0  0  0  0  0  0  0  0  0  0  0  0
  -25.5700   14.2960   -8.2110 O   0  0  0  0  0  0  0  0  0  0  0  0
  -23.9840   10.5640   -7.5590 C   0  0  0  0  0  0  0  0  0  0  0  0
  -24.5470   11.7530   -7.7420 N   0  0  0  0  0  0  0  0  0  0  0  0
  -24.2210   12.4840   -8.8460 C   0  0  0  0  0  0  0  0  0  0  0  0
  -22.7240   10.8510   -9.6080 N   0  0  0  0  0  0  0  0  0  0  0  0
  -23.2180   12.0520   -9.7890 C   0  0  0  0  0  0  0  0  0  0  0  0
  -24.9410   13.7600   -9.0920 C   0  0  0  0  0  0  0  0  0  0  0  0
  -25.0360   14.1760  -10.4020 N   0  0  0  0  0  0  0  0  0  0  0  0
  -25.7620   15.3370  -10.7980 C   0  0  2  0  0  0  0  0  0  0  0  0
  -27.2770   15.0800  -10.8580 C   0  0  0  0  0  0  0  0  0  0  0  0
  -27.9960   16.0920  -11.0440 O   0  0  0  0  0  0  0  0  0  0  0  0
  -25.2270   15.8220  -12.1800 C   0  0  0  0  0  0  0  0  0  0  0  0
  -25.6420   14.8600  -13.1670 O   0  0  0  0  0  0  0  0  0  0  0  0
  -27.7870   13.8860  -10.5900 N   0  0  0  0  0  0  0  0  0  0  0  0
  -29.2460   13.7420  -10.5720 C   0  0  2  0  0  0  0  0  0  0  0  0
  -29.4780   12.7090   -9.4960 C   0  0  0  0  0  0  0  0  0  0  0  0
  -30.7460   12.5620   -9.0910 O   0  0  0  0  0  0  0  0  0  0  0  0
  -29.9400   13.3720  -11.9070 C   0  0  0  0  0  0  0  0  0  0  0  0
  -29.4980   12.0250  -12.4710 C   0  0  0  0  0  0  0  0  0  0  0  0
  -29.8510   10.7800  -12.0240 C   0  0  0  0  0  0  0  0  0  0  0  0
  -28.5060   11.7760  -13.5580 C   0  0  0  0  0  0  0  0  0  0  0  0
  -29.2230    9.7480  -12.6950 N   0  0  0  0  0  0  0  0  0  0  0  0
  -28.4040   10.3080  -13.6280 C   0  0  0  0  0  0  0  0  0  0  0  0
  -27.7190   12.6530  -14.3280 C   0  0  0  0  0  0  0  0  0  0  0  0
  -27.4980    9.7360  -14.5270 C   0  0  0  0  0  0  0  0  0  0  0  0
  -26.8850   12.0330  -15.2900 C   0  0  0  0  0  0  0  0  0  0  0  0
  -26.8160   10.6080  -15.3650 C   0  0  0  0  0  0  0  0  0  0  0  0
  -28.6010   11.9650   -8.9830 O   0  0  0  0  0  0  0  0  0  0  0  0
  1  2  1  0  0  0  0
  3  4  2  0  0  0  0
  4  5  1  0  0  0  0
  5  1  2  0  0  0  0
  6 12  1  6  0  0  0
  6  4  1  0  0  0  0
  6  9  1  0  0  0  0
  7  1  1  0  0  0  0
  9  7  2  0  0  0  0
 10  9  1  0  0  0  0
 11 10  2  0  0  0  0
 13 12  2  0  0  0  0
 13 11  1  0  0  0  0
 14 11  1  0  0  0  0
 14  8  2  0  0  0  0
 15 14  1  0  0  0  0
 16 19  1  6  0  0  0
 16 15  1  0  0  0  0
 17 16  1  0  0  0  0
 17 21  1  0  0  0  0
 18 17  2  0  0  0  0
 20 19  1  0  0  0  0
 21 22  1  0  0  0  0
 22 25  1  6  0  0  0
 22 23  1  0  0  0  0
 23 24  2  0  0  0  0
 23 35  1  0  0  0  0
 26 27  1  0  0  0  0
 26 25  1  0  0  0  0
 28 26  2  0  0  0  0
 29 27  1  0  0  0  0
 30 28  1  0  0  0  0
 30 29  2  0  0  0  0
 31 28  1  0  0  0  0
 32 30  1  0  0  0  0
 33 31  2  0  0  0  0
 34 33  1  0  0  0  0
 34 32  2  0  0  0  0
M  END
