test/ricin//ligands/4MX1.A.MLA_304_A.lig
 OpenBabel09152012293D

  7  6  0  0  0  0  0  0  0  0999 V2000
   -9.2990   23.3370  -22.0050 C   0  0  0  0  0  0  0  0  0  0  0  0
   -8.8230   22.9130  -20.8380 O   0  0  0  0  0  0  0  0  0  0  0  0
  -10.1680   22.6420  -22.4880 O   0  0  0  0  0  0  0  0  0  0  0  0
   -8.7650   24.6120  -22.6760 C   0  0  0  0  0  0  0  0  0  0  0  0
   -8.5660   24.4850  -24.1850 C   0  0  0  0  0  0  0  0  0  0  0  0
   -8.5360   25.5800  -24.9870 O   0  0  0  0  0  0  0  0  0  0  0  0
   -8.4410   23.3690  -24.6850 O   0  0  0  0  0  0  0  0  0  0  0  0
  1  2  1  0  0  0  0
  3  1  2  0  0  0  0
  4  1  1  0  0  0  0
  5  4  1  0  0  0  0
  6  5  2  0  0  0  0
  7  5  1  0  0  0  0
M  END
