test/ricin//ligands/4MX5.X.5MX_301_X.lig
 OpenBabel09152012293D

 21 22  0  0  1  0  0  0  0  0999 V2000
   24.2010  -10.0330   -6.5600 N   0  0  0  0  0  4  0  0  0  0  0  0
   23.8690   -8.7500   -6.4310 C   0  0  0  0  0  0  0  0  0  0  0  0
   24.1900   -8.0540   -5.3140 N   0  0  0  0  0  0  0  0  0  0  0  0
   23.0240   -8.1620   -7.3750 N   0  0  0  0  0  0  0  0  0  0  0  0
   22.7190   -8.8790   -8.5100 C   0  0  0  0  0  0  0  0  0  0  0  0
   21.9160   -8.3120   -9.2950 O   0  0  0  0  0  0  0  0  0  0  0  0
   22.8000  -10.9820   -9.7330 N   0  0  0  0  0  0  0  0  0  0  0  0
   23.2670  -12.2560   -9.8350 C   0  0  0  0  0  0  0  0  0  0  0  0
   24.2020  -12.6990   -8.8690 C   0  0  0  0  0  0  0  0  0  0  0  0
   24.4240  -11.9810   -7.7600 N   0  0  0  0  0  0  0  0  0  0  0  0
   23.0730  -10.2130   -8.6350 C   0  0  1  0  0  0  0  0  0  0  0  0
   23.9400  -10.7170   -7.6610 C   0  0  0  0  0  0  0  0  0  0  0  0
   24.7430  -14.0140   -9.0310 C   0  0  0  0  0  0  0  0  0  0  0  0
   25.5380  -14.4810   -8.2200 O   0  0  0  0  0  0  0  0  0  0  0  0
   24.6650  -14.5640  -10.2770 N   0  0  0  0  0  0  0  0  0  0  0  0
   25.1940  -15.8940  -10.5340 C   0  0  0  0  0  0  0  0  0  0  0  0
   26.5260  -15.7860  -11.3210 C   0  0  0  0  0  0  0  0  0  0  0  0
   27.4580  -14.7380  -10.8460 N   0  0  0  0  0  0  0  0  0  0  0  0
   28.7090  -15.0260  -10.4280 C   0  0  0  0  0  0  0  0  0  0  0  0
   29.4350  -14.0940  -10.0090 O   0  0  0  0  0  0  0  0  0  0  0  0
   29.1510  -16.2170  -10.4670 O   0  0  0  0  0  0  0  0  0  0  0  0
  1  2  2  0  0  0  0
  2  3  1  0  0  0  0
  4  2  1  0  0  0  0
  5  4  1  0  0  0  0
  6  5  2  0  0  0  0
  8  7  2  0  0  0  0
  8  9  1  0  0  0  0
  9 10  2  0  0  0  0
 10 12  1  0  0  0  0
 11  7  1  6  0  0  0
 11  5  1  0  0  0  0
 11 12  1  0  0  0  0
 12  1  2  0  0  0  0
 13  9  1  0  0  0  0
 13 14  2  0  0  0  0
 15 13  1  0  0  0  0
 16 15  1  0  0  0  0
 17 18  1  0  0  0  0
 17 16  1  0  0  0  0
 18 19  1  0  0  0  0
 19 20  1  0  0  0  0
 21 19  2  0  0  0  0
M  END
